***********************************************
*ELECTRONICS WORKBENCH MODEL FILE             * 
*MODELS GENERATED BY: R.TALOS                 *
*(c) 1996 INTERACTIVE IMAGE TECHNOLOGIES LTD. * 
*TORONTO, ONTARIO (416)977-5550.              *
***********************************************
.MODEL M2SJ147 PMOS (
+   VTO =  69.62
+   KP =  5.167e-07
+   LAMBDA =  0
+   PHI =  0.6
+   GAMMA =  0
+   RD =  20.03
+   RS =  0.01
+   IS =  1e-18
+   CGBO =  0
+   CGDO =  1
+   CGSO =  3.5714e-15
+   CBD =  2.1432e-09
+   CBS =  0
+   PB =  0.8
+   RSH =  0
+   CJ =  0
+   MJ =  0.5
+   CJSW =  0
+   MJSW =  0.5
+   JS =  0
+   TOX =  2e-06
+   NSUB =  0
+   NSS =  0
+   TPG =  1
+   LD =  0
+   U0 =  600
+   KF =  0
+   AF =  1
+   FC =  0.5
+   TNOM =  27
)

.MODEL M2SJ238 PMOS (
+   VTO =  16.01
+   KP =  5.1534e-07
+   LAMBDA =  0
+   PHI =  0.6
+   GAMMA =  0
+   RD =  48.062
+   RS =  0.01
+   IS =  0.020108
+   CGBO =  0
+   CGDO =  2.0408e-14
+   CGSO =  0.42879
+   CBD =  2.3557e-10
+   CBS =  0
+   PB =  0.8
+   RSH =  0
+   CJ =  0
+   MJ =  0.48577
+   CJSW =  0
+   MJSW =  0.5
+   JS =  0
+   TOX =  2e-06
+   NSUB =  0
+   NSS =  0
+   TPG =  1
+   LD =  0
+   U0 =  600
+   KF =  0
+   AF =  1
+   FC =  0.5
+   TNOM =  27
)

.MODEL M2SJ239 PMOS (
+   VTO =  0.67201
+   KP =  5.2074e-07
+   LAMBDA =  0
+   PHI =  0.6
+   GAMMA =  0
+   RD =  0.15279
+   RS =  0.01
+   IS =  9.1749e-06
+   CGBO =  0
+   CGDO =  1.1364e-15
+   CGSO =  5.4165e-10
+   CBD =  1.158e-09
+   CBS =  0
+   PB =  0.8
+   RSH =  0
+   CJ =  0
+   MJ =  0.53903
+   CJSW =  0
+   MJSW =  0.5
+   JS =  0
+   TOX =  2e-06
+   NSUB =  0
+   NSS =  0
+   TPG =  1
+   LD =  0
+   U0 =  600
+   KF =  0
+   AF =  1
+   FC =  0.5
+   TNOM =  27
)

.MODEL M2SJ240 PMOS (
+   VTO =  28.009
+   KP =  5.1695e-07
+   LAMBDA =  0
+   PHI =  0.6
+   GAMMA =  0
+   RD =  38.609
+   RS =  0.01
+   IS =  0.1
+   CGBO =  0
+   CGDO =  3.8051e-09
+   CGSO =  1.3699e-16
+   CBD =  1e-18
+   CBS =  0
+   PB =  0.8
+   RSH =  0
+   CJ =  0
+   MJ =  1.5
+   CJSW =  0
+   MJSW =  0.5
+   JS =  0
+   TOX =  2e-06
+   NSUB =  0
+   NSS =  0
+   TPG =  1
+   LD =  0
+   U0 =  600
+   KF =  0
+   AF =  1
+   FC =  0.5
+   TNOM =  27
)

.MODEL M2SJ241 PMOS (
+   VTO =  2.2789
+   KP =  5.08e-07
+   LAMBDA =  0
+   PHI =  0.6
+   GAMMA =  0
+   RD =  34.986
+   RS =  0.01
+   IS =  0.1
+   CGBO =  0
+   CGDO =  6.1617e-10
+   CGSO =  1.4282e-10
+   CBD =  1e-18
+   CBS =  0
+   PB =  3
+   RSH =  0
+   CJ =  0
+   MJ =  1.5
+   CJSW =  0
+   MJSW =  0.5
+   JS =  0
+   TOX =  2e-06
+   NSUB =  0
+   NSS =  0
+   TPG =  1
+   LD =  0
+   U0 =  600
+   KF =  0
+   AF =  1
+   FC =  0.5
+   TNOM =  27
)

.MODEL M2SJ312 PMOS (
+   VTO =  72.14
+   KP =  5.401e-07
+   LAMBDA =  0
+   PHI =  0.6
+   GAMMA =  0
+   RD =  17.838
+   RS =  0.01
+   IS =  1e-18
+   CGBO =  0
+   CGDO =  1e-15
+   CGSO =  1e-15
+   CBD =  2.0208e-09
+   CBS =  0
+   PB =  0.8
+   RSH =  0
+   CJ =  0
+   MJ =  0.5
+   CJSW =  0
+   MJSW =  0.5
+   JS =  0
+   TOX =  2e-06
+   NSUB =  0
+   NSS =  0
+   TPG =  1
+   LD =  0
+   U0 =  600
+   KF =  0
+   AF =  1
+   FC =  0.5
+   TNOM =  27
)

.MODEL M2SJ349 PMOS (
+   VTO =  73.7
+   KP =  5.2083e-07
+   LAMBDA =  0
+   PHI =  0.6
+   GAMMA =  0
+   RD =  12.782
+   RS =  0.01
+   IS =  1e-18
+   CGBO =  0
+   CGDO =  1.6667e-16
+   CGSO =  1.6667e-16
+   CBD =  4.7765e-09
+   CBS =  0
+   PB =  0.8
+   RSH =  0
+   CJ =  0
+   MJ =  0.5
+   CJSW =  0
+   MJSW =  0.5
+   JS =  0
+   TOX =  2e-06
+   NSUB =  0
+   NSS =  0
+   TPG =  1
+   LD =  0
+   U0 =  600
+   KF =  0
+   AF =  1
+   FC =  0.5
+   TNOM =  27
)
