* Copyright (c) 2000-2020 Analog Devices, Inc.   All rights reserved.
*
.model 1N914 D(Is=2.52n Rs=.568 N=1.752 Cjo=4p M=.4 tt=20n Iave=200m Vpk=75 mfg=OnSemi type=silicon)
.model 1N4148 D(Is=2.52n Rs=.568 N=1.752 Cjo=4p M=.4 tt=20n Iave=200m Vpk=75 mfg=OnSemi type=silicon)
.model MMSD4148 D(Is=2.52n Rs=.568 N=1.752 Cjo=.64p M=.4 tt=5n Iave=200m Vpk=100 mfg=Onsemi type=silicon)
.model 1N5817 D(Is=31.7u Rs=.051 N=1.373 Cjo=190p M=.3 Eg=.69 Xti=2 Iave=1 Vpk=20 mfg=OnSemi type=Schottky)
.model 1N5818 D(Is=31.7u Rs=.051 N=1.373 Cjo=160p M=.38 Eg=.69 Xti=2 Iave=1 Vpk=30 mfg=OnSemi type=Schottky)
.model 1N5819 D(Is=31.7u Rs=.051 N=1.373 Cjo=110p M=.35 Eg=.69 Xti=2 Iave=1 Vpk=40 mfg=OnSemi type=Schottky)
.model BAT54 D(Is=.1u Rs=2.2 N=1 Cjo=12p M=.3 Eg=.69 Xti=2 Iave=300m Vpk=30 mfg=Vishay type=Schottky)
.model MBR0520L D(Is=82.5n Rs=.115 N=.7228 Cjo=180p M=.63 Eg=.69 Xti=2 Iave=.5 Vpk=20 mfg=OnSemi type=Schottky)
.model MBR0530L D(Is=1.55u Rs=.0858 N=1.079 Cjo=180p Eg=.69 Xti=2 Iave=.5 Vpk=30 mfg=OnSemi type=Schottky)
.model MBRS1100 D(Is=20.6u Rs=.0079 N=2.303 Cjo=270p M=.575 Eg=.69 Xti=2 Iave=1 Vpk=100 mfg=OnSemi type=Schottky)
.model MBRS130L D(Is=772n Rs=.0299 N=.8442 Cjo=290p M=.7 Eg=.69 Xti=2 Iave=1 Vpk=30 mfg=OnSemi type=Schottky)
.model MBRS140 D(Is=235n Rs=.109 N=.7760 Cjo=160p M=.6 Eg=.69 Xti=2 Iave=1 Vpk=40 mfg=OnSemi type=Schottky)
.model MBRS340 D(Is=22.6u Rs=.042 N=1.094 Cjo=480p M=.61 Eg=.69 Xti=2 Iave=3 Vpk=40 mfg=OnSemi type=Schottky)
.model MBRS360 D(Is=22.6u Rs=.042 N=1.094 Cjo=480p M=.61 Eg=.69 Xti=2 Iave=3 Vpk=60 mfg=OnSemi type=Schottky)
.model CMDSH2-3 D(Is=210nA Rs=.5 N=1.09 Cjo=50p M=.5 Eg=.69 Xti=2 Iave=200m Vpk=30 mfg=Central type=Schottky)
.model DFLS220L D(Is=25u Rs=.047 N=1 Cjo=252p M=.33 Eg=.69 Xti=2 Iave=2 Vpk=20 mfg=Diodes_Inc. type=Schottky)
.model MURS120 D(Is=33.8n Rs=.0236 N=1.718 Cjo=45p M=.6 tt=45n Iave=1 Vpk=200 mfg=OnSemi type=silicon)
.model MURS320 D(Is=1.06n Rs=.0111 N=1.367 Cjo=135p M=.45 tt=45n Iave=3 Vpk=200 mfg=OnSemi type=silicon)
.model MBR735 D(Is=159u Rs=.02 N=1.76 Cjo=740p M=.6 Eg=.69 Xti=2 Iave=7.5 Vpk=35 mfg=OnSemi type=Schottky)
.model MBR745 D(Is=159u Rs=.02 N=1.76 Cjo=740p M=.6 Eg=.69 Xti=2 Iave=7.5 Vpk=45 mfg=OnSemi type=Schottky)
.model BZX84C6V2L D(Is=1.5n Rs=.5 Cjo=185p nbv=3 bv=6.2 Ibv=1m Vpk=6.2 mfg=OnSemi type=Zener)
.model BZX84C8V2L D(Is=.8n Rs=.5 Cjo=135p nbv=3 bv=8.2 Ibv=1m Vpk=8.2 mfg=OnSemi type=Zener)
.model BZX84C10L D(Is=.6n Rs=.5 Cjo=150p nbv=5 bv=10 Ibv=1m Vpk=10 mfg=OnSemi type=Zener)
.model BZX84C12L D(Is=.6n Rs=.5 Cjo=150p nbv=5 bv=12 Ibv=1m Vpk=12 mfg=OnSemi type=Zener)
.model BZX84C15L D(Is=.6n Rs=.5 Cjo=110p nbv=6 bv=15 Ibv=1m Vpk=15 mfg=OnSemi type=Zener)
.model RB10L-40 D(Is=2.6u Rs=.0674 N=1.163 Cjo=180p M=.6 Eg=.69 Xti=2 Iave=1 Vpk=40 mfg=Rohm type=Schottky)
.model 1N750 D(Is=.88f Rs=.25 Cjo=175p M=.55 nbv=1.7 bv=4.7 Vj=.75 Isr=1.86n Nr=2 Ibv=20.245m Ibvl=1.96m Nbvl=15 Tbv1=-21.3u Vpk=4.7 mfg=OnSemi type=Zener)
.model MV2201 D(Is=1.365p Rs=1 Cjo=14.93p M=.4261 Vj=.75 Isr=16.02p Nr=2 Bv=25 Ibv=10u Vpk=25 mfg=OnSemi type=varactor)
.model KV1471 D(Is=.8p Rs=.8 Cjo=162p M=1.225 Vj=0.408 Vpk=18 mfg=Toko type=varactor)
.model MBR0540 D(Is=9.11u Rs=.121 N=1.33753 Eg=.69 Xti=2 Cjo=194p Vj=.25 M=.4 Iave=.5 Vpk=40 mfg=GI type=Schottky)
.model MUR460 D(Is=149n Rs=.0384 N=2 EG=1.285 XTI=.5 BV=800 IBV=1e-05 Cjo=126.4p Vj=1.34 M=.52 tt=44.4n Iave=4 Vpk=600 mfg=GI type=silicon)
.model MBRB2545CT D(Is=19.4n Rs=.01 N=.733 Eg=.718 Xti=.535 Cjo=2.05n Vj=.4 M=.41 Iave=25 Vpk=45 mfg=GI type=Schottky)
.model MBR20100CT D(Is=10u Rs=.005 N=1.5 Ikf=.3 Isr=10u Nr=3 Cjo=1e-11 Vj=.7 Iave=10 Vpk=100 mfg=OnSemi type=Schottky)
.model 30BQ060 D(Is=10u Rs=.04 N=1.4 Cjo=180p Eg=.69 Xti=2 Iave=3 Vpk=60 mfg=International_Rectifier type=Schottky)
.model UPSC600 D(Is=2p Rs=.33 N=1.5 Cjo=50p M=.3 Iave=1 Vpk=600 mfg=Microsemi type=Schottky)
.model NSPW500BS D(Is=.27n Rs=5.65 N=6.79 Cjo=42p Xti=200 Iave=30m Vpk=5 mfg=Nichia type=LED)
.model NSCW100 D(Is=16.88n Rs=8.163 N=9.626 Cjo=42p Xti=200 Iave=30m Vpk=5 mfg=Nichia type=LED)
.model QTLP690C D(Is=1e-22 Rs=6 N=1.5 Cjo=50p Xti=100 Iave=160m Vpk=5 mfg=Fairchild type=LED)
.model LXHL-BW02 D(Is=4.5e-20 Rs=.85 N=2.6 Cjo=1.18n Xti=200 Iave=400mA Vpk=5 mfg=Lumileds type=LED)
.model LXK2-PW14 D(Is=3.5e-17 Rs=.725 N=3.12 Cjo=1.2n Xti=200 Iave=1.6 Vpk=5 mfg=Lumileds type=LED)
.model AOT-2015 D(Is=5.961e-10 Rs=1.07 N=6.222 Cjo=.5n Xti=200 Iave=175mA Vpk=5 mfg=AOT type=LED)
.model NSSW008CT-P1 D(Is=.23f Rs=17.6 N=3.43 Cjo=42p Xti=120 Iave=35m Vpk=5 mfg=Nichia type=LED)
.model NSSWS108T D(Is=1.13e-18 Rs=14.9 N=3.02 Cjo=42p Xti=150 Iave=35m Vpk=5 mfg=Nichia type=LED)
.model PMEG2020AEA D(Is=5.409u Rs=.05676 N=1.02 Cjo=.1908n M=.4863 Eg=.69 Xti=2 BV=22 IBV=50u Vj=.3408 Iave=2 Vpk=20 mfg=NXP type=Schottky)
.model PMEG2010EA D(Is=1.686u Rs=.1249 N=1.015 Cjo=90.86p M=.4542 Eg=.69 Xti=2 BV=21 IBV=1u Vj=.1939 Iave=1 Vpk=20 mfg=NXP type=Schottky)
.model PMEG2010BEA D(Is=3.334u Rs=.08222 N=.9791 Cjo=.1266n M=.5 Eg=.69 Xti=2 BV=22 IBV=.0001 Vj=.3619 Iave=1 Vpk=20 mfg=NXP type=Schottky)
.model PMEG3010BEA D(Is=2.936u Rs=.1166 N=.9839 Cjo=.1068n M=.4948 Eg=.69 Xti=2 BV=33 IBV=75u Vj=.3459 Iave=1 Vpk=30 mfg=NXP type=Schottky)
.model PMEG4010BEA D(Is=2.831u Rs=.1975 N=.9816 Cjo=84.37p M=.4789 Eg=.69 Xti=2 BV=44 IBV=50u Vj=.3116 Iave=1 Vpk=40 mfg=NXP type=Schottky)
.model PMEG2005AEA D(Is=3.334u Rs=.08222 N=.9791 Cjo=.1266n M=.5 Eg=.69 Xti=2 BV=22 IBV=.0001 Vj=.3619 Iave=.5 Vpk=20 mfg=NXP type=Schottky)
.model PMEG3005AEA D(Is=2.936u Rs=.1166 N=.9839 Cjo=.1068n M=.4948 Eg=.69 Xti=2 BV=33 IBV=75u Vj=.3459 Iave=.5 Vpk=30 mfg=NXP type=Schottky)
.model PMEG4005AEA D(Is=2.831u Rs=.1975 N=.9816 Cjo=84.37p M=.4789 Eg=.69 Xti=2 BV=44 IBV=50u Vj=.3116 Iave=.5 Vpk=40 mfg=NXP type=Schottky)
.model PMEG2010AEB D(Is=87.24u Rs=.2728 N=.9699 Cjo=29.99p M=.3755 Eg=.69 Xti=2 BV=22 IBV=.0004 Vj=.2604 Iave=1 Vpk=20 mfg=NXP type=Schottky)
.model PMEG2005EB D(Is=.9985u Rs=.2146 N=.9283 Cjo=61.05p M=.4159 Eg=.69 Xti=2 BV=32 IBV=.001 Vj=.1 Iave=.5 Vpk=20 mfg=NXP type=Schottky)
.model PMEG6010AED D(Is=.5u Rs=.3422 N=.9751 Cjo=.175n M=.4725 Eg=.69 Xti=2 BV=66 IBV=.0004 Vj=.3761 Iave=1 Vpk=60 mfg=NXP type=Schottky)
.model PRLL5817 D(Is=2.119u Rs=.0419 N=1.02 Cjo=.252n M=.5104 Eg=.69 Xti=2 BV=1000 IBV=.001 Vj=.4792 Iave=1 Vpk=20 mfg=NXP type=Schottky)
.model GSD2004W-V D(Is=.01p Rs=1.6 N=1 Cjo=5p tt=50n Iave=225m Vpk=300 mfg=Vishay type=silicon)
.model DFLZ33 D(Is=12.5p Rs=.6 N=1.1 Cjo=220p VJ=1 M=.33 tt=50n BV=29 IBV=1e-10 NBV=8 Vpk=33 mfg=Diodes_Inc. type=Zener)
.model PDS760 D(Is=360n Rs=.016 N=1.04 Cjo=1200p M=.33 Eg=.69 Xti=2 Iave=7 Vpk=60 mfg=Diodes_Inc. type=Schottky)
.model B520C D(Is=200u Rs=8m Cjo=300p N=1.7 Ikf=2 Isr=200u Nr=2 Iave=5 Vpk=20 mfg=Diodes_Inc. type=Schottky)
.model B530C D(Is=200u Rs=8m Cjo=300p N=1.7 Ikf=2 Isr=200u Nr=2 Iave=5 Vpk=30 mfg=Diodes_Inc. type=Schottky)
.model B540C D(Is=200u Rs=8m Cjo=300p N=1.7 Ikf=2 Isr=200u Nr=2 Iave=5 Vpk=40 mfg=Diodes_Inc. type=Schottky)
.model B550C D(Is=20u Rs=25m Cjo=300p N=1.7 Ikf=10 Isr=100u Nr=2 Iave=5 Vpk=50 mfg=Diodes_Inc. type=Schottky)
.model B560C D(Is=20u Rs=25m Cjo=300p N=1.7 Ikf=10 Isr=100u Nr=2 Iave=5 Vpk=60 mfg=Diodes_Inc. type=Schottky)
.model 10MQ060N D(Is=.1u Rs=.14 Cjo=102p N=1 M=.3 Eg=.69 Xti=2 Iave=1.5 Vpk=60 mfg=International_Rectifier type=Schottky)
.model ZLLS1000 D(Is=750n Rs=.13 N=1 Cjo=76p M=.3 Eg=.69 Iave=1 Vpk=40 mfg=Zetex type=Schottky)
.model ZLLS2000 D(Is=2u Rs=.06 N=1 Cjo=182p M=.3 Eg=.69 Iave=1 Vpk=40 mfg=Zetex type=Schottky)
.model PDS5100 D(Is=49.0u Rs=7.63m BV=100 IBV=200u Cjo=375p M=0.333 N=1.84 TT=21.6n Iave=5 Vpk=100 mfg=Diodes_Inc. type=Schottky)
.model ES1D D(Is=.5u Rs=25m N=2 Cjo=10.5p M=.4 tt=15n Iave=1 Vpk=200 mfg=Vishay type=silicon)
.model SS24 D(Is=.4mA Rs=.016 N=2.1 Cjo=800p Eg=.69 Xti=2 Iave=2 Vpk=40 mfg=Fairchild type=Schottky)
.model PT-121-B D(Is=4.352e-7 Rs=.032 N=8.37 Cjo=5n Xti=100 Iave=20A Vpk=5.3 mfg=Luminus type=LED)
.model 1N5373B D(IS=1.54e-17 N=1 XTI=1 Rs=.1 Cjo=10p TT=10n BV=68 IBV=20m NBV=50 Vpk=68 mfg=OnSemi type=Zener)
.model 1N5378B D(IS=1.54e-17 N=1 XTI=1 Rs=.1 Cjo=10p TT=10n BV=100 IBV=12m NBV=48 Vpk=100 mfg=OnSemi type=Zener)
.model 1N5375B D(IS=1.54e-17 N=1 XTI=1 Rs=.1 Cjo=10p TT=10n BV=82 IBV=15m NBV=35 Vpk=82 mfg=OnSemi type=Zener)
.model 1N5371B D(IS=1.54e-17 N=1 XTI=1 Rs=.1 Cjo=10p TT=10n BV=60 IBV=20m NBV=30 Vpk=60 mfg=OnSemi type=Zener)
.model 1N5369B D(IS=1.54e-17 N=1 XTI=1 Rs=.1 Cjo=10p TT=10n BV=51 IBV=25m NBV=35 Vpk=51 mfg=OnSemi type=Zener)
.model W5AP-LZMZ-5K8L D(Is=3.5e-17 Rs=.25 N=3.12 Cjo=2.75n Xti=150 Iave=2 Vpk=5 mfg=Lumileds type=LED)
.model LUW-W5AP D(Is=6.572e-8 Rs=.147 N=7.267 Cjo=5n Xti=150 Iave=2000mA mfg=OSRAM type=LED)
.model BAT46WJ D(Is=.1703u N=1.06 Rs=1.3 Cjo=35p Vj=.4 M=.5 Eg=.69 XTI=2 Iave=.25 Vpk=100 mfg=NXP type=Schottky)
.model SS3P5 D(Is=120u Rs=40m N=2.05 Cjo=200p Vj=700m M=.45 Iave=3 Vpk=50 mfg=Fairchild type=Schottky)
.model SMBJ24CA D(Ron=.65 Roff=50Meg Vfwd=25 epsilon=6 Vrev=25 revepsilon=6 Vpk=24 mfg=Littlefuse type=TVS)
.model SMCJ33A D(Ron=.4 Roff=8Meg Vfwd=.7 epsilon=100m Vrev=38.65 Vpk=33 revepsilon=4 mfg=Littlefuse type=TVS)
.model NSR20F30NXT5G D(Is=1e-07 Rs=0.0685826 N=0.776978 Eg=0.6 Xti=3.94234 BV=35 Ibv=0.665074 Cjo=3.78999e-10 Vj=0.484208 M=0.480643 Fc=0.5 TT=0 KF=0 AF=1 Vpk=30 mfg=OnSemi type=Schottky)
.model RRE02VS4S D(Is=24.195E-12 N=1.5366 Rs=.23596 Ikf=.62542 Cjo=3.4000E-12 M=.31934 Vj=.50899 Isr=218.42E-12 Nr=3.6000 Bv=400 tt=810.00E-9 Trs1=0.001 Iave=0.2 Vpk=400 mfg=Rohm type=Rectifier)
.model RRE07VS4S D(Is=689.77E-12 N=1.6610 Rs=90.691E-3 Ikf=507.97 Eg=1.0500 Cjo=12.500E-12 M=.38273 Vj=.50419 Isr=102.21E-12 Nr=3 Bv=400 tt=1.1300E-6 Trs1=0.001 Iave=0.7 Vpk=400 mfg=Rohm type=Rectifier)
.model RRE02VS6S D(Is=865.57E-12 N=1.8532 Rs=.22784 Ikf=81.233 Eg=1.0800 Cjo=2.6000E-12 M=.29056 Vj=.52841 Isr=654.57E-12 Nr=3.6000 Bv=600 tt=930.00E-9 Trs1=0.001 Iave=0.2 Vpk=600 mfg=Rohm type=Rectifier)
.model RR264M-400 D(Is=599.20E-12 N=1.6555 Rs=62.086E-3 Ikf=5.5206 Cjo=106.14E-12 M=.43343 Vj=.47628 Isr=1.4138E-9 Nr=3 Bv=400 tt=6.9000E-6 Iave=0.7 Vpk=400 mfg=Rohm type=Rectifier)
.model 1SR154-400 D(Is=534.77E-12 N=1.6239 Rs=50.532E-3 Ikf=4.0010 Cjo=23.729E-12 M=.31942 Vj=.41083 Isr=2.4181E-9 Nr=2.5000 Bv=500 tt=4.1000E-6 Iave=1 Vpk=500 mfg=Rohm type=Rectifier)
.model RR2L4S D(Is=201.70E-12 N=1.4797 Rs=16.071E-3 Ikf=11.643 Eg=1.0500 Cjo=49.000E-12 M=.37648 Vj=.50987 Isr=1.3403E-9 Nr=3.3000 Bv=400 tt=5.2E-6 Trs1=0.0025 Iave=2 Vpk=400 mfg=Rohm type=Rectifier)
.model 1SR154-600 D(Is=1.1191E-9 N=1.6862 Rs=57.049E-3 Ikf=7.0701 Cjo=17.770E-12 M=.36215 Vj=.43005 Isr=1.6686E-9 Nr=2.5000 Bv=750 tt=4.8000E-6 Iave=1 Vpk=750 mfg=Rohm type=Rectifier)
.model RR2L6S D(Is=1.5392E-9 N=1.6310 Rs=16.849E-3 Ikf=17.962 Eg=.97 Cjo=44.000E-12 M=.40234 Vj=.51261 Isr=1.4208E-9 Nr=3.3000 Bv=600 tt=5.9300E-6 Trs1=0.001 Iave=2 Vpk=600 mfg=Rohm type=Rectifier)
.model 1SR156-400 D(Is=72.169E-9 N=2.0427 Rs=75.306E-3 Ikf=51.357E-3 Cjo=33.986E-12 M=.51481 Vj=.47751 Isr=512.43E-15 Bv=500 tt=245.00E-9 Iave=1 Vpk=500 mfg=Rohm type=Rectifier)
.model RFU01SM4S D(Is=294.35E-12 N=2.0137 Rs=1.5143 Ikf=11.685E-3 Eg=1.2000 Cjo=1.6000E-12 M=.1889 Vj=.55345 Isr=975.68E-12 Nr=4 Bv=450 tt=33.182E-9 Tikf=0.018 Trs1=0.0005 Iave=0.1 Vpk=450 mfg=Rohm type=FastRecovery)
.model RF01VM2S D(Is=17.807E-12 N=1.4353 Rs=.64944 Ikf=13.145E-3 Eg=1.0500 Cjo=1.5500E-12 M=.35328 Vj=.61608 Isr=117.59E-12 Nr=2.8000 Bv=250 tt=82.000E-9 Iave=0.1 Vpk=250 mfg=Rohm type=FastRecovery)
.model RF05VA1S D(Is=1.1825E-12 N=1.0061 Rs=52.469E-3 Ikf=12.140E-3 Eg=.9 Cjo=28.100E-12 M=.47776 Vj=.76142 Isr=91.946E-12 Nr=2.2000 Bv=100 tt=28.8n Tikf=0.01 Iave=0.5 Vpk=100 mfg=Rohm type=FastRecovery)
.model RF05VA2S D(Is=10.045E-12 N=1.1284 Rs=61.271E-3 Ikf=17.146E-3 Eg=.98 Cjo=21.422E-12 M=.50302 Vj=.99572 Isr=111.54E-12 Nr=2.7000 Bv=200 tt=24.2n Tikf=0.01 Iave=0.5 Vpk=200 mfg=Rohm type=FastRecovery)
.model RF05VAM1S D(Is=1.1825E-12 N=1.0061 Rs=52.469E-3 Ikf=12.140E-3 Eg=.9 Cjo=28.100E-12 M=.47776 Vj=.76142 Isr=91.946E-12 Nr=2.2000 Bv=100 tt=28.8n Tikf=0.01 Iave=0.5 Vpk=100 mfg=Rohm type=FastRecovery)
.model RF05VAM2S D(Is=10.045E-12 N=1.1284 Rs=61.271E-3 Ikf=17.146E-3 Eg=.98 Cjo=21.422E-12 M=.50302 Vj=.99572 Isr=111.54E-12 Nr=2.7000 Bv=200 tt=24.2n Tikf=0.01 Iave=0.5 Vpk=200 mfg=Rohm type=FastRecovery)
.model RFU02VS6S D(Is=4.9427E-9 N=2.3572 Rs=1.2300 Ikf=9.5772E-3 Eg=1.2000 Cjo=5.0000E-12 M=.40785 Vj=.75082 Isr=134.67E-12 Nr=3 Bv=600 tt=34n Tikf=0.01 Iave=0.2 Vpk=600 mfg=Rohm type=FastRecovery)
.model RFU02VS8S D(Is=20.057E-9 N=2.9921 Rs=1.9320 Ikf=1.7685E-3 Eg=1.4000 Cjo=4.1000E-12 M=.33142 Vj=.7549 Isr=193.07E-12 Nr=3.5000 Bv=800 tt=35.346E-9 Tikf=0.01 Trs1=-0.0015 Iave=0.2 Vpk=800 mfg=Rohm type=FastRecovery)
.model RF071M2S D(Is=30.548E-12 N=1.0916 Rs=17.205E-3 Ikf=18.602E-3 Eg=.95 Cjo=37.745E-12 M=.4084 Vj=.49252 Isr=770.05E-12 Nr=2.2000 Bv=200 tt=28.4n Tikf=0.01 Iave=0.7 Vpk=200 mfg=Rohm type=FastRecovery)
.model RF081M2S D(Is=6.5755E-12 N=1.0439 Rs=37.091E-3 Ikf=28.493E-3 Eg=.98 Cjo=58.872E-12 M=.51102 Vj=.5064 Isr=602.20E-12 Nr=3.4000 Bv=200 tt=32.1n Tikf=0.01 Iave=0.8 Vpk=200 mfg=Rohm type=FastRecovery)
.model RF101L2S D(Is=30.548E-12 N=1.0916 Rs=17.205E-3 Ikf=18.602E-3 Eg=.95 Cjo=37.745E-12 M=.4084 Vj=.49252 Isr=770.05E-12 Nr=2.2000 Bv=200 tt=28.4n Tikf=0.01 Iave=1 Vpk=200 mfg=Rohm type=FastRecovery)
.model RF081L2S D(Is=6.5755E-12 N=1.0439 Rs=37.091E-3 Ikf=28.493E-3 Eg=.98 Cjo=58.872E-12 M=.51102 Vj=.5064 Isr=602.20E-12 Nr=3.4000 Bv=200 tt=32.1n Tikf=0.01 Iave=1.1 Vpk=200 mfg=Rohm type=FastRecovery)
.model RF201L2S D(Is=35.093E-12 N=1.0494 Rs=9.0796E-3 Ikf=24.697E-3 Eg=.9 Cjo=95.449E-12 M=.46277 Vj=.58536 Isr=1.1055E-9 Nr=2.2000 Bv=200 tt=34.035E-9 Tikf=0.01 Iave=2 Vpk=200 mfg=Rohm type=FastRecovery)
.model RF071L4S D(Is=60.405E-12 N=1.3717 Rs=88.603E-3 Ikf=43.611E-3 Eg=.95 Cjo=29.000E-12 M=.46212 Vj=.51566 Isr=135.72E-12 Nr=3.5000 Bv=400 tt=48n Tikf=0.01 Iave=1 Vpk=400 mfg=Rohm type=FastRecovery)
.model RF101L4S D(Is=44.942E-12 N=1.2044 Rs=84.363E-3 Ikf=5.8327E-3 Eg=.95 Cjo=40.361E-12 M=.4473 Vj=.46229 Isr=1.0552E-9 Nr=3.3 Bv=400 tt=44n Tikf=0.01 Iave=1 Vpk=400 mfg=Rohm type=FastRecovery)
.model RF201L4S D(Is=873.69E-12 N=1.5124 Rs=27.069E-3 Ikf=.14468 Eg=1 Cjo=116.40E-12 M=.46899 Vj=.57805 Isr=204.39E-12 Nr=2.5000 Bv=400 tt=47n Tikf=0.01 Iave=1.5 Vpk=400 mfg=Rohm type=FastRecovery)
.model RFN2L4S D(Is=2.6699E-9 N=1.5366 Rs=11.602E-3 Ikf=.24034 Eg=.9 Cjo=67.400E-12 M=.42442 Vj=.5129 Isr=960.40E-12 Nr=2.5000 Bv=400 tt=52n Tikf=0.01 Iave=1.5 Vpk=400 mfg=Rohm type=FastRecovery)
.model RFN1L6S D(Is=429.12E-12 N=1.6222 Rs=.12869 Ikf=37.865E-3 Eg=1 Cjo=28.500E-12 M=.4519 Vj=.51356 Isr=472.10E-12 Nr=3.8000 Bv=600 tt=57.5n Tikf=0.01 Iave=0.8 Vpk=600 mfg=Rohm type=FastRecovery)
.model RFN2L6S D(Is=867.59E-12 N=1.7217 Rs=52.431E-3 Ikf=61.897E-3 Cjo=43.000E-12 M=.47106 Vj=.75496 Isr=1.2591E-9 Nr=2.4000 Bv=600 tt=36.501E-9 Iave=1.5 Vpk=600 mfg=Rohm type=FastRecovery)
.model RFN1L7S D(Is=2.4108E-9 N=1.6931 Rs=.10912 Ikf=35.752E-3 Eg=.95 Cjo=26.400E-12 M=.45233 Vj=.5244 Isr=518.63E-12 Nr=2.3000 Bv=700 tt=108n Tikf=0.01 Iave=0.8 Vpk=700 mfg=Rohm type=FastRecovery)
.model RF04UA2D D(Is=4.0404E-12 N=1.1718 Rs=.13276 Ikf=15.291E-3 Eg=1.0100 Cjo=10.245E-12 M=.49346 Vj=.85916 Isr=140.45E-12 Nr=3 Bv=200 tt=24.8n Tikf=0.01 Iave=0.2 Vpk=200 mfg=Rohm type=FastRecovery)
.model RF601BM2D D(Is=85.433E-12 N=1.0869 Rs=9.7532E-3 Ikf=30.488E-3 Eg=.9 Cjo=99.780E-12 M=.41038 Vj=.43155 Isr=418.21E-12 Nr=3.2000 Bv=200 tt=31.865E-9 Tikf=0.01 Iave=3 Vpk=200 mfg=Rohm type=FastRecovery)
.model RFN6BM2D D(Is=124.78E-12 N=1.1947 Rs=15.799E-3 Ikf=97.168E-3 Eg=.95 Cjo=87.740E-12 M=.45016 Vj=.50918 Isr=201.48E-12 Nr=3 Bv=200 tt=25.304E-9 Tikf=0.018 Trs1=0.0005 Iave=3 Vpk=200 mfg=Rohm type=FastRecovery)
.model RF1001NS2D D(Is=58.151E-12 N=1.0482 Rs=7.1487E-3 Ikf=39.496E-3 Eg=.9 Cjo=186.24E-12 M=.42565 Vj=.48647 Isr=1.0282E-9 Nr=3.2000 Bv=200 tt=30.089E-9 Tikf=0.01 Iave=5 Vpk=200 mfg=Rohm type=FastRecovery)
.model RF1601NS2D D(Is=14.351E-12 N=.96481 Rs=6.7789E-3 Ikf=42.397E-3 Eg=.92 Cjo=271.16E-12 M=.39883 Vj=.58603 Isr=1.5397E-9 Nr=2.4000 Bv=200 tt=34n Tikf=0.01 Iave=8 Vpk=200 mfg=Rohm type=FastRecovery)
.model RF2001NS2D D(Is=181.15E-12 N=1.0508 Rs=5.7833E-3 Ikf=76.666E-3 Eg=.83 Cjo=368.36E-12 M=.4201 Vj=.48168 Isr=1.0416E-9 Nr=2.3000 Bv=200 tt=36.748E-9 Tikf=0.01 Iave=10 Vpk=200 mfg=Rohm type=FastRecovery)
.model RF2001NS3D D(Is=2.7996E-9 N=1.4787 Rs=18.383E-3 Ikf=.28843 Eg=1.1000 Cjo=207.00E-12 M=.42954 Vj=.53732 Isr=1.3513E-9 Nr=3.2000 Bv=350 tt=33n Tikf=0.01 Iave=10 Vpk=350 mfg=Rohm type=FastRecovery)
.model RF601T2D D(Is=85.433E-12 N=1.0869 Rs=9.7532E-3 Ikf=30.488E-3 Eg=.9 Cjo=99.780E-12 M=.41038 Vj=.43155 Isr=418.21E-12 Nr=3.2000 Bv=200 tt=31.865E-9 Tikf=0.01 Iave=3 Vpk=200 mfg=Rohm type=FastRecovery)
.model RFN6T2D D(Is=124.78E-12 N=1.1947 Rs=15.799E-3 Ikf=97.168E-3 Eg=.95 Cjo=87.740E-12 M=.45016 Vj=.50918 Isr=201.48E-12 Nr=3 Bv=200 tt=25.304E-9 Tikf=0.018 Trs1=0.0005 Iave=3 Vpk=200 mfg=Rohm type=FastRecovery)
.model RF1001T2D D(Is=58.151E-12 N=1.0482 Rs=7.1487E-3 Ikf=39.496E-3 Eg=.9 Cjo=186.24E-12 M=.42565 Vj=.48647 Isr=1.0282E-9 Nr=3.2000 Bv=200 tt=30.089E-9 Tikf=0.01 Iave=5 Vpk=200 mfg=Rohm type=FastRecovery)
.model RFN10T2D D(Is=216.60E-12 N=1.1476 Rs=9.3813E-3 Ikf=57.903E-3 Eg=.9 Cjo=130.00E-12 M=.44075 Vj=.5145 Isr=473.38E-12 Nr=2.5000 Bv=200 tt=29.5n Tikf=0.01 Iave=5 Vpk=200 mfg=Rohm type=FastRecovery)
.model RF1601T2D D(Is=14.351E-12 N=.96481 Rs=6.7789E-3 Ikf=42.397E-3 Eg=.92 Cjo=271.16E-12 M=.39883 Vj=.58603 Isr=1.5397E-9 Nr=2.4000 Bv=200 tt=34n Tikf=0.01 Iave=8 Vpk=200 mfg=Rohm type=FastRecovery)
.model RFN16T2D D(Is=260.52E-12 N=1.1335 Rs=7.4727E-3 Ikf=91.738E-3 Eg=.9 Cjo=223.00E-12 M=.44583 Vj=.52352 Isr=419.89E-12 Nr=2.5000 Bv=200 tt=27.5n Tikf=0.01 Iave=8 Vpk=200 mfg=Rohm type=FastRecovery)
.model RF2001T2D D(Is=181.15E-12 N=1.0508 Rs=5.7833E-3 Ikf=76.666E-3 Eg=.83 Cjo=368.36E-12 M=.4201 Vj=.48168 Isr=1.0416E-9 Nr=2.3000 Bv=200 tt=36.748E-9 Tikf=0.01 Iave=10 Vpk=200 mfg=Rohm type=FastRecovery)
.model RFN20T2D D(Is=104.32E-12 N=1.0508 Rs=6.3095E-3 Ikf=49.028E-3 Eg=.85 Cjo=258.00E-12 M=.43957 Vj=.5152 Isr=733.44E-12 Nr=2.0000 Bv=200 tt=28.2n Tikf=0.01 Iave=10 Vpk=200 mfg=Rohm type=FastRecovery)
.model RF2001T3D D(Is=2.7996E-9 N=1.4787 Rs=18.383E-3 Ikf=.28843 Eg=1.1000 Cjo=207.00E-12 M=.42954 Vj=.53732 Isr=1.3513E-9 Nr=3.2000 Bv=350 tt=33n Tikf=0.01 Iave=10 Vpk=350 mfg=Rohm type=FastRecovery)
.model RFUH30TS6D D(Is=45.685E-9 N=2.2776 Rs=16.675E-3 Ikf=68.790E-3 Cjo=211.00E-12 M=.44651 Vj=.51159 Isr=609.79E-12 Nr=4 Bv=600 tt=27.500E-9 Tikf=0.03 Trs1=-0.0005 Iave=15 Vpk=600 mfg=Rohm type=FastRecovery)
.model RFN60TS6D D(Is=2.5393E-9 N=1.4813 Rs=7.6933E-3 Ikf=.2334 Cjo=450.00E-12 M=.4567 Vj=.55254 Isr=1.3614E-9 Nr=3 Bv=600 tt=71.030E-9 Tikf=0.018 Trs1=0.0005 Iave=30 Vpk=600 mfg=Rohm type=FastRecovery)
.model RFUH60TS6D D(Is=14.328E-9 N=2.0004 Rs=15.412E-3 Ikf=92.810E-3 Cjo=435.53E-12 M=.4393 Vj=.47362 Isr=2.4124E-9 Nr=4 Bv=600 tt=44.200E-9 Tikf=0.03 Trs1=-0.0005 Iave=30 Vpk=600 mfg=Rohm type=FastRecovery)
.model RF301BM2S D(Is=62.820E-12 N=1.0915 Rs=18.739E-3 Ikf=31.776E-3 Eg=0.9 Cjo=91.737E-12 M=.41721 Vj=.53716 Isr=500.15E-12 Nr=2.9000 Bv=200 tt=30n Tikf=0.01 Iave=3 Vpk=200 mfg=Rohm type=FastRecovery)
.model RFN3BM2S D(Is=124.78E-12 N=1.1947 Rs=15.799E-3 Ikf=97.168E-3 Eg=.95 Cjo=87.740E-12 M=.44455 Vj=.48313 Isr=202.78E-12 Nr=3 Bv=200 tt=25.304E-9 Tikf=0.018 Trs1=0.0005 Iave=3 Vpk=200 mfg=Rohm type=FastRecovery)
.model RF501BM2S D(Is=12.411E-12 N=.98961 Rs=7.2508E-3 Ikf=31.606E-3 Eg=.95 Cjo=193.53E-12 M=.44869 Vj=.51503 Isr=937.11E-12 Nr=2.7000 Bv=200 tt=28.3n Tikf=0.01 Iave=5 Vpk=200 mfg=Rohm type=FastRecovery)
.model RFN5BM2S D(Is=457.90E-12 N=1.2127 Rs=11.859E-3 Ikf=.10931 Eg=.9 Cjo=135.60E-12 M=.45251 Vj=.56028 Isr=247.52E-12 Nr=2.3000 Bv=200 tt=26n Tikf=0.01 Iave=5 Vpk=200 mfg=Rohm type=FastRecovery)
.model RFN5BM3S D(Is=1.8636E-9 N=1.4947 Rs=16.816E-3 Ikf=.15307 Eg=1 Cjo=90.700E-12 M=.47124 Vj=.58267 Isr=270.66E-12 Nr=2.3000 Bv=350 tt=38n Tikf=0.01 Iave=5 Vpk=350 mfg=Rohm type=FastRecovery)
.model RF305BM6S D(Is=2.7577E-9 N=1.8886 Rs=36.869E-3 Ikf=75.644E-3 Eg=1.2500 Cjo=101.00E-12 M=.47282 Vj=.51797 Isr=505.52E-12 Nr=3.2000 Bv=600 tt=45.5n Tikf=0.01 Iave=3 Vpk=600 mfg=Rohm type=FastRecovery)
.model RFN3BM6S D(Is=14.927E-9 N=2.1466 Rs=42.575E-3 Ikf=.10213 Eg=1.2500 Cjo=54.500E-12 M=.51108 Vj=.73744 Isr=165.03E-12 Nr=3.2000 Bv=600 tt=42.600E-9 Tikf=0.01 Iave=3 Vpk=600 mfg=Rohm type=FastRecovery)
.model RF505BM6S D(Is=14.418E-9 N=1.8209 Rs=24.737E-3 Ikf=.13898 Eg=1.0200 Cjo=150.00E-12 M=.54835 Vj=.70933 Isr=18.025E-12 Bv=600 tt=49n Tikf=0.01 Iave=5 Vpk=600 mfg=Rohm type=FastRecovery)
.model RFN5BM6S D(Is=1.1861E-9 N=1.7549 Rs=30.639E-3 Ikf=.14756 Eg=1.2500 Cjo=90.000E-12 M=.47647 Vj=.59779 Isr=454.99E-12 Nr=3.2000 Bv=600 tt=47.4n Tikf=0.01 Iave=5 Vpk=600 mfg=Rohm type=FastRecovery)
.model RFN10BM3S D(Is=1.3720E-9 N=1.4021 Rs=12.832E-3 Ikf=.21247 Eg=1 Cjo=165.90E-12 M=.47692 Vj=.59813 Isr=552.10E-12 Nr=2.5000 Bv=350 tt=42.3n Tikf=0.01 Iave=10 Vpk=350 mfg=Rohm type=FastRecovery)
.model RFN10BM6S D(Is=13.436E-9 N=1.7555 Rs=13.156E-3 Ikf=.15702 Eg=1 Cjo=168.00E-12 M=.46459 Vj=.51864 Isr=212.37E-12 Nr=3 Bv=600 tt=61n Tikf=0.01 Iave=10 Vpk=600 mfg=Rohm type=FastRecovery)
.model RF1501NS3S D(Is=628.31E-12 N=1.3228 Rs=10.517E-3 Ikf=.25333 Eg=1.1000 Cjo=354.00E-12 M=.43343 Vj=.50807 Isr=1.0770E-9 Nr=3.2000 Bv=350 tt=33.4n Tikf=0.01 Iave=20 Vpk=350 mfg=Rohm type=FastRecovery)
.model RFN10NS3S D(Is=1.3720E-9 N=1.4021 Rs=12.832E-3 Ikf=.21247 Eg=1 Cjo=165.90E-12 M=.47692 Vj=.59813 Isr=552.10E-12 Nr=2.5000 Bv=350 tt=42.3n Tikf=0.01 Iave=10 Vpk=350 mfg=Rohm type=FastRecovery)
.model RFN20NS3S D(Is=2.2110E-9 N=1.3471 Rs=5.2059E-3 Ikf=.23497 Eg=.95 Cjo=415.00E-12 M=.45078 Vj=.59386 Isr=687.78E-12 Nr=2.5000 Bv=350 tt=44n Tikf=0.01 Iave=20 Vpk=350 mfg=Rohm type=FastRecovery)
.model RFUH20NS3S D(Is=7.3862E-9 N=1.6058 Rs=9.5725E-3 Ikf=.345 Eg=1 Cjo=330.00E-12 M=.45903 Vj=.59546 Isr=288.07E-12 Nr=1.9000 Bv=350 tt=25n Tikf=0.01 Iave=20 Vpk=350 mfg=Rohm type=FastRecovery)
.model RFUH25NS3S D(Is=6.6726E-9 N=1.5628 Rs=8.4063E-3 Ikf=.42612 Eg=1 Cjo=386.30E-12 M=.43719 Vj=.51591 Isr=885.54E-12 Nr=1.9000 Bv=350 tt=27n Tikf=0.01 Iave=20 Vpk=350 mfg=Rohm type=FastRecovery)
.model RFN10NS4S D(Is=3.6343E-9 N=1.5946 Rs=11.302E-3 Ikf=.19239 Eg=1 Cjo=156.20E-12 M=.46967 Vj=.55634 Isr=289.64E-12 Bv=430 tt=39n Tikf=0.01 Iave=10 Vpk=430 mfg=Rohm type=FastRecovery)
.model RFUH10NS4S D(Is=15.309E-9 N=1.8022 Rs=12.779E-3 Ikf=.44057 Eg=.93 Cjo=150.30E-12 M=.46411 Vj=.51969 Isr=123.04E-12 Bv=430 tt=31n Tikf=0.01 Iave=10 Vpk=430 mfg=Rohm type=FastRecovery)
.model RFN20NS4S D(Is=7.7008E-9 N=1.6045 Rs=8.6697E-3 Ikf=.34432 Eg=1 Cjo=268.00E-12 M=.45951 Vj=.51295 Isr=107.76E-12 Bv=430 tt=43n Tikf=0.01 Iave=20 Vpk=430 mfg=Rohm type=FastRecovery)
.model RFUS20NS4S D(Is=10.268E-9 N=1.6263 Rs=11.968E-3 Ikf=.60932 Eg=1 Cjo=375.00E-12 M=.44951 Vj=.55345 Isr=622.81E-12 Nr=3.2000 Bv=430 tt=41.4n Tikf=0.01 Iave=20 Vpk=430 mfg=Rohm type=FastRecovery)
.model RFUH20NS4S D(Is=16.259E-9 N=1.9942 Rs=8.5699E-3 Ikf=.54992 Eg=1.0700 Cjo=266.00E-12 M=.45918 Vj=.51161 Isr=175.51E-12 Bv=430 tt=34n Tikf=0.01 Iave=20 Vpk=430 mfg=Rohm type=FastRecovery)
.model RFN10NS6S D(Is=13.436E-9 N=1.7555 Rs=13.156E-3 Ikf=.15702 Eg=1 Cjo=168.00E-12 M=.46459 Vj=.51864 Isr=212.37E-12 Nr=3 Bv=600 tt=61n Tikf=0.01 Iave=10 Vpk=600 mfg=Rohm type=FastRecovery)
.model RFUH10NS6S D(Is=17.288E-9 N=2.4086 Rs=20.868E-3 Ikf=.33206 Eg=1.3000 Cjo=158.20E-12 M=.45903 Vj=.54883 Isr=131.51E-12 Nr=3 Bv=600 tt=28n Tikf=0.01 Trs1=-0.001 Iave=10 Vpk=600 mfg=Rohm type=FastRecovery)
.model RFN20NS6S D(Is=22.550E-9 N=1.6626 Rs=8.7129E-3 Ikf=.16879 Eg=.93 Cjo=322.00E-12 M=.47017 Vj=.55476 Isr=303.85E-12 Nr=3 Bv=600 tt=72n Tikf=0.01 Iave=20 Vpk=600 mfg=Rohm type=FastRecovery)
.model RFUH20NS6S D(Is=21.421E-9 N=1.9253 Rs=19.231E-3 Ikf=.25578 Eg=1.0700 Cjo=315.00E-12 M=.4461 Vj=.51056 Isr=628.68E-12 Bv=600 tt=30n Tikf=0.01 Iave=20 Vpk=600 mfg=Rohm type=FastRecovery)
.model RFUS20NS6S D(Is=18.303E-9 N=1.9567 Rs=21.319E-3 Ikf=.28796 Eg=1.2000 Cjo=415.00E-12 M=.43803 Vj=.52487 Isr=992.39E-12 Nr=3 Bv=600 tt=47n Tikf=0.01 Trs1=-0.001 Iave=20 Vpk=600 mfg=Rohm type=FastRecovery)
.model RF2001T4S D(Is=15.439E-9 N=1.3556 Rs=18.149E-3 Ikf=32.762E-3 Eg=.87 Cjo=417.94E-12 M=.39034 Vj=.42637 Isr=2.2243E-9 Nr=2.5000 Bv=430 tt=40.3n Tikf=0.01 Trs1=-0.003 Iave=20 Vpk=430 mfg=Rohm type=FastRecovery)
.model RFUS20TM4S D(Is=10.268E-9 N=1.6263 Rs=11.968E-3 Ikf=.60932 Eg=1 Cjo=375.00E-12 M=.44951 Vj=.55345 Isr=622.81E-12 Nr=3.2000 Bv=430 tt=41.4n Tikf=0.01 Iave=20 Vpk=430 mfg=Rohm type=FastRecovery)
.model RFU20TM5S D(Is=26.628E-9 N=2.0290 Rs=12.980E-3 Ikf=1.0074 Cjo=415.00E-12 M=.44741 Vj=.52693 Isr=1.0596E-9 Nr=2.3000 Bv=530 tt=39n Tikf=0.01 Iave=20 Vpk=530 mfg=Rohm type=FastRecovery)
.model RFUS20TM6S D(Is=18.303E-9 N=1.9567 Rs=21.319E-3 Ikf=.28796 Eg=1.2000 Cjo=415.00E-12 M=.43803 Vj=.52487 Isr=992.39E-12 Nr=3 Bv=600 tt=47n Tikf=0.01 Trs1=-0.001 Iave=20 Vpk=600 mfg=Rohm type=FastRecovery)
.model RFN30TS6D D(Is=1.6031E-9 N=1.5514 Rs=9.8819E-3 Ikf=.2024 Cjo=212.00E-12 M=.44625 Vj=.50489 Isr=680.97E-12 Nr=3 Bv=600 tt=63.877E-9 Tikf=0.018 Trs1=0.001 Iave=30 Vpk=600 mfg=Rohm type=FastRecovery)
.model RFUH30TS6S D(Is=56.127E-9 N=2.1381 Rs=15.874E-3 Ikf=82.271E-3 Cjo=435.00E-12 M=.45459 Vj=.51464 Isr=156.24E-12 Nr=4 Bv=600 tt=45.200E-9 Tikf=0.03 Trs1=-0.0005 Iave=30 Vpk=600 mfg=Rohm type=FastRecovery)
.model RFUH20TB3S D(Is=7.3862E-9 N=1.6058 Rs=9.5725E-3 Ikf=.345 Eg=1 Cjo=330.00E-12 M=.45903 Vj=.59546 Isr=288.07E-12 Nr=1.9000 Bv=350 tt=25n Tikf=0.01 Iave=20 Vpk=350 mfg=Rohm type=FastRecovery)
.model RFUH25TB3S D(Is=6.6726E-9 N=1.5628 Rs=8.4063E-3 Ikf=.42612 Eg=1 Cjo=386.30E-12 M=.43719 Vj=.51591 Isr=885.54E-12 Nr=1.9000 Bv=350 tt=27n Tikf=0.01 Iave=20 Vpk=350 mfg=Rohm type=FastRecovery)
.model RFN10TB4S D(Is=3.6343E-9 N=1.5946 Rs=11.302E-3 Ikf=.19239 Eg=1 Cjo=156.20E-12 M=.46967 Vj=.55634 Isr=289.64E-12 Bv=430 tt=39n Tikf=0.01 Iave=10 Vpk=430 mfg=Rohm type=FastRecovery)
.model RFUH10TB4S D(Is=15.309E-9 N=1.8022 Rs=12.779E-3 Ikf=.44057 Eg=.93 Cjo=150.30E-12 M=.46411 Vj=.51969 Isr=123.04E-12 Bv=430 tt=31n Tikf=0.01 Iave=10 Vpk=430 mfg=Rohm type=FastRecovery)
.model RFN20TB4S D(Is=7.7008E-9 N=1.6045 Rs=8.6697E-3 Ikf=.34432 Eg=1 Cjo=268.00E-12 M=.45951 Vj=.51295 Isr=107.76E-12 Bv=430 tt=43n Tikf=0.01 Iave=20 Vpk=430 mfg=Rohm type=FastRecovery)
.model RFUH20TB4S D(Is=16.259E-9 N=1.9942 Rs=8.5699E-3 Ikf=.54992 Eg=1.0700 Cjo=266.00E-12 M=.45918 Vj=.51161 Isr=175.51E-12 Bv=430 tt=34n Tikf=0.01 Iave=20 Vpk=430 mfg=Rohm type=FastRecovery)
.model RF1501TF3S D(Is=628.31E-12 N=1.3228 Rs=10.517E-3 Ikf=.25333 Eg=1.1000 Cjo=354.00E-12 M=.43343 Vj=.50807 Isr=1.0770E-9 Nr=3.2000 Bv=350 tt=33.4n Tikf=0.01 Iave=20 Vpk=350 mfg=Rohm type=FastRecovery)
.model RFUS10TF4S D(Is=5.2226E-9 N=1.6434 Rs=25.211E-3 Ikf=.10897 Eg=1 Cjo=181.80E-12 M=.46487 Vj=.56555 Isr=96.115E-12 Nr=3 Bv=430 tt=39.7n Tikf=0.01 Iave=10 Vpk=430 mfg=Rohm type=FastRecovery)
.model RF505TF6S D(Is=14.418E-9 N=1.8209 Rs=24.737E-3 Ikf=.13898 Eg=1.0200 Cjo=150.00E-12 M=.54835 Vj=.70933 Isr=18.025E-12 Bv=600 tt=49n Tikf=0.01 Iave=5 Vpk=600 mfg=Rohm type=FastRecovery)
.model RFN5TF6S D(Is=1.1861E-9 N=1.7549 Rs=30.639E-3 Ikf=.14756 Eg=1.2500 Cjo=90.000E-12 M=.47647 Vj=.59779 Isr=454.99E-12 Nr=3.2000 Bv=600 tt=47.4n Tikf=0.01 Iave=5 Vpk=600 mfg=Rohm type=FastRecovery)
.model RFU5TF6S D(Is=5.0000E-9 N=2.2999 Rs=64.096E-3 Ikf=9.1822E-3 Eg=1.4000 Cjo=125.00E-12 M=.46874 Vj=.75563 Isr=483.52E-12 Nr=3.5000 Bv=600 tt=29.4n Tikf=0.01 Trs1=-0.001 Iave=5 Vpk=600 mfg=Rohm type=FastRecovery)
.model RF1005TF6S D(Is=14.956E-9 N=1.8393 Rs=18.550E-3 Ikf=.19576 Cjo=270.00E-12 M=.47268 Vj=.51459 Isr=534.12E-12 Nr=3 Bv=600 tt=61n Tikf=0.01 Iave=10 Vpk=600 mfg=Rohm type=FastRecovery)
.model RFN10TF6S D(Is=13.436E-9 N=1.7555 Rs=13.156E-3 Ikf=.15702 Eg=1 Cjo=168.00E-12 M=.46459 Vj=.51864 Isr=212.37E-12 Nr=3 Bv=600 tt=61n Tikf=0.01 Iave=10 Vpk=600 mfg=Rohm type=FastRecovery)
.model RFX10TF6S D(Is=20.000E-9 N=2.1954 Rs=33.646E-3 Ikf=17.752E-3 Eg=1.4000 Cjo=222.00E-12 M=.42921 Vj=.52767 Isr=2.6375E-9 Nr=3 Bv=600 tt=29n Tikf=0.01 Trs1=-0.0015 Iave=10 Vpk=600 mfg=Rohm type=FastRecovery)
.model RFUH10TF6S D(Is=17.288E-9 N=2.4086 Rs=20.868E-3 Ikf=.33206 Eg=1.3000 Cjo=158.20E-12 M=.45903 Vj=.54883 Isr=131.51E-12 Nr=3 Bv=600 tt=28n Tikf=0.01 Trs1=-0.001 Iave=10 Vpk=600 mfg=Rohm type=FastRecovery)
.model RFU10TF6S D(Is=20.000E-9 N=2.4066 Rs=37.614E-3 Ikf=51.241E-3 Eg=1.4000 Cjo=223.03E-12 M=.44903 Vj=.57571 Isr=441.24E-12 Nr=3 Bv=600 tt=30n Tikf=0.01 Trs1=-0.0015 Iave=10 Vpk=600 mfg=Rohm type=FastRecovery)
.model RFN20TF6S D(Is=22.550E-9 N=1.6626 Rs=8.7129E-3 Ikf=.16879 Eg=.93 Cjo=322.00E-12 M=.47017 Vj=.55476 Isr=303.85E-12 Nr=3 Bv=600 tt=72n Tikf=0.01 Iave=20 Vpk=600 mfg=Rohm type=FastRecovery)
.model RFUH20TF6S D(Is=21.421E-9 N=1.9253 Rs=19.231E-3 Ikf=.25578 Eg=1.0700 Cjo=315.00E-12 M=.4461 Vj=.51056 Isr=628.68E-12 Bv=600 tt=30n Tikf=0.01 Iave=20 Vpk=600 mfg=Rohm type=FastRecovery)
.model RFUS20TF6S D(Is=18.303E-9 N=1.9567 Rs=21.319E-3 Ikf=.28796 Eg=1.2000 Cjo=415.00E-12 M=.43803 Vj=.52487 Isr=992.39E-12 Nr=3 Bv=600 tt=47n Tikf=0.01 Trs1=-0.001 Iave=20 Vpk=600 mfg=Rohm type=FastRecovery)
.model RFN5TF8S D(Is=25.640E-9 N=2.2001 Rs=35.046E-3 Ikf=.15787 Eg=1.1500 Cjo=141.10E-12 M=.47876 Vj=.63758 Isr=164.31E-12 Nr=3.2000 Bv=800 tt=44.5n Tikf=0.01 Iave=5 Vpk=800 mfg=Rohm type=FastRecovery)
.model 1SS400SM D(Is=1.7962E-9 N=1.7555 Rs=.55113 Ikf=72.153E-3 Cjo=1.3304E-12 M=.11174 Vj=4.1020 Isr=3.2239E-9 Nr=4.0000 Bv=90 tt=11.542E-9 Iave=100m Vpk=90 mfg=Rohm type=Switching)
.model 1SS355VM D(Is=1.7962E-9 N=1.7555 Rs=.55113 Ikf=72.153E-3 Cjo=1.3304E-12 M=.11174 Vj=4.1020 Isr=3.2239E-9 Nr=4.0000 Bv=90 tt=11.542E-9 Iave=100m Vpk=90 mfg=Rohm type=Switching)