* Copyright (c) 2000-2020 Analog Devices, Inc.   All rights reserved.
*
.model Si7336ADP VDMOS(Rg=3.5 Rd=1.2m Rs=800u mtriode=1.9 lambda=0.01 Vto=2.9 Ksubthres=100m Kp=280 Cgdmax=1.6n Cgdmin=200p A=1.5 Cgs=5.2n Cjo=3n M=.5 Is=5p Rb=3m mfg=Siliconix Vds=30 Ron=2.4m Qg=36n)
.model BSP89 VDMOS(Rg=3 Rd=2.1 Rs=1.7 mtriode=.8 lambda=0.01 Vto=1.6 ksubthres=70m Kp=1.1 Cgdmax=300p Cgdmin=3p A=1 Cgs=70p Cjo=10p M=.25 Vj=.9 Is=600f Rb=.3 mfg=Infineon Vds=240 Ron=4.9 Qg=4.3n)
.model AO6407 VDMOS(pchan Rg=3 Rd=14m Rs=10m Vto=-.8 Kp=32 Cgdmax=.5n Cgdmin=.07n Cgs=.9n Cjo=.26n Is=26p Rb=17m ksubthres=.1 mfg=Alpha_&_Omega Vds=-20 Ron=34m Qg=13n)
.model AO6408 VDMOS(Rg=3 Rd=4.8m Rs=3.6m Vto=1 Kp=90 Cgdmax=.7n Cgdmin=.25n Cgs=1n Cjo=.36n Is=36p Rb=6m ksubthres=.1 mfg=Alpha_&_Omega Vds=20 Ron=12m Qg=18n)
.model AP9465GEM VDMOS(Rg=2 Vto=1.8 Rd=0 Rs=16m Rb=10m Kp=30 lambda=0.04 Cgs=600p Cgdmin=50p Cgdmax=800p Cjo=1.2n Is=3p ksubthres=.1 mfg=Advanced_Power_Electronics Vds=40 Ron=25m Qg=8.5n)
.model BSB012N03LX3 VDMOS(Rg=0.5 Vto=2.77 Rd=612u Rs=183u Rb=383u Kp=1084 Lambda=0.09 Cgdmin=155p Cgdmax=2.32n A=0.6 Cgs=9.61n Cjo=8.84n M=0.3 Is=84p VJ=0.9 N=1.1 TT=3n ksubthres=.1 mfg=Infineon Vds=30 Ron=1.2m Qg=62n)
.model BSB012N03MX3 VDMOS(Rg=0.5 Vto=2.52 Rd=572u Rs=183u Rb=373u Kp=1182.4 Lambda=0.07 Cgdmin=221p Cgdmax=3.09n A=0.6 Cgs=12.71n Cjo=8.84n M=0.3 Is=77.4p VJ=0.9 N=1.11 TT=3n ksubthres=.1 mfg=Infineon Vds=30 Ron=1.2m Qg=82n)
.model BSB012NE2LX VDMOS(Rg=0.55 Vto=2.33 Rd=632u Rs=85u Rb=415u Kp=1031.4 Lambda=0.09 Cgdmin=88p Cgdmax=1.58n A=0.6 Cgs=4.73n Cjo=5.17n M=0.75 Is=53.6p VJ=2.5 N=1.12 TT=3n ksubthres=.1 mfg=Infineon Vds=25 Ron=1.2m Qg=33n)
.model BSB013NE2LXI VDMOS(Rg=0.6 Vto=2.33 Rd=652u Rs=85u Rb=1.37m Kp=893.8 Lambda=0.09 Cgdmin=88p Cgdmax=1.58n A=0.6 Cgs=4.23n Cjo=5.17n M=0.75 Is=53618p VJ=2.5 N=1.12 TT=1p ksubthres=.1 mfg=Infineon Vds=25 Ron=1.3m Qg=30n)
.model BSB014N04LX3 VDMOS(Rg=1 Vto=2.89 Rd=692u Rs=183u Rb=343u Kp=1084 Lambda=0.09 Cgdmin=155p Cgdmax=2.32n A=0.6 Cgs=11.38n Cjo=7.46n M=0.3 Is=84p VJ=0.9 N=1.1 TT=3n ksubthres=.1 mfg=Infineon Vds=40 Ron=1.2m Qg=71n)
.model BSB015N04NX3 VDMOS(Rg=1 Vto=4.95 Rd=612u Rs=183u Rb=343u Kp=580.5 Lambda=0.03 Cgdmin=111p Cgdmax=1.55n A=0.6 Cgs=8.4n Cjo=7.46n M=0.3 Is=84p VJ=0.9 N=1.1 TT=3n ksubthres=.1 mfg=Infineon Vds=40 Ron=1.5m Qg=114n)
.model BSB017N03LX3 VDMOS(Rg=0.5 Vto=2.77 Rd=1.06m Rs=203u Rb=563u Kp=599.1 Lambda=0.09 Cgdmin=85p Cgdmax=1.28n A=0.6 Cgs=5.31n Cjo=5.14n M=0.3 Is=46.4p VJ=0.9 N=1.1 TT=3n ksubthres=.1 mfg=Infineon Vds=30 Ron=1.7m Qg=34n)
.model BSB017N03MX3 VDMOS(Rg=0.5 Vto=2.52 Rd=1m Rs=203u Rb=543u Kp=653.4 Lambda=0.07 Cgdmin=122p Cgdmax=1.71n A=0.6 Cgs=7.02n Cjo=5.14n M=0.3 Is=42.7p VJ=0.9 N=1.11 TT=3n ksubthres=.1 mfg=Infineon Vds=30 Ron=1.7m Qg=45n)
.model BSC010NE2LS VDMOS(Rg=0.6 Vto=2.33 Rd=400u Rs=236u Rb=586u Kp=976.6 Lambda=0.09 Cgdmin=84p Cgdmax=1.49n A=0.6 Cgs=4.48n Cjo=4.91n M=0.75 Is=50.8p VJ=2.5 N=1.12 TT=3n ksubthres=.1 mfg=Infineon Vds=25 Ron=1m Qg=31n)
.model BSC010NE2LSI VDMOS(Rg=0.6 Vto=2.33 Rd=420u Rs=236u Rb=1.59m Kp=852.9 Lambda=0.09 Cgdmin=84p Cgdmax=1.5n A=0.6 Cgs=4.03n Cjo=4.95n M=0.75 Is=51161.5p VJ=2.5 N=1.12 TT=1p ksubthres=.1 mfg=Infineon Vds=25 Ron=1.05m Qg=29n)
.model BSC011N03LS VDMOS(Rg=0.6 Vto=2.3 Rd=440u Rs=236u Rb=586u Kp=958.7 Lambda=0.07 Cgdmin=119p Cgdmax=2.09n A=0.6 Cgs=4.48n Cjo=4.91n M=0.75 Is=50.8p VJ=2.5 N=1.12 TT=3n ksubthres=.1 mfg=Infineon Vds=30 Ron=1.1m Qg=34n)
.model BSC014N03LS VDMOS(Rg=1.5 Vto=2.77 Rd=770u Rs=231u Rb=491u Kp=840 Lambda=0.09 Cgdmin=120p Cgdmax=1.8n A=0.6 Cgs=7.45n Cjo=6.99n M=0.3 Is=65.1p VJ=0.9 N=1.1 TT=3n ksubthres=.1 mfg=Infineon Vds=30 Ron=1.4m Qg=48n)
.model BSC014N03MS VDMOS(Rg=1.5 Vto=2.52 Rd=730u Rs=231u Rb=481u Kp=916.2 Lambda=0.07 Cgdmin=171p Cgdmax=2.4n A=0.6 Cgs=9.85n Cjo=6.99n M=0.3 Is=59.9p VJ=0.9 N=1.11 TT=3n ksubthres=.1 mfg=Infineon Vds=30 Ron=1.4m Qg=63n)
.model BSC016N03LS VDMOS(Rg=1.5 Vto=2.77 Rd=770u Rs=381u Rb=641u Kp=840 Lambda=0.09 Cgdmin=120p Cgdmax=1.8n A=0.6 Cgs=7.45n Cjo=6.99n M=0.3 Is=65.1p VJ=0.9 N=1.1 TT=3n ksubthres=.1 mfg=Infineon Vds=30 Ron=1.6m Qg=48n)
.model BSC016N03MS VDMOS(Rg=1.3 Vto=2.52 Rd=730u Rs=381u Rb=631u Kp=916.2 Lambda=0.07 Cgdmin=171p Cgdmax=2.4n A=0.6 Cgs=9.85n Cjo=6.99n M=0.3 Is=59.9p VJ=0.9 N=1.11 TT=3n ksubthres=.1 mfg=Infineon Vds=30 Ron=2.0m Qg=63n)
.model BSC016N04LS VDMOS(Rg=1.5 Vto=2.89 Rd=880u Rs=231u Rb=441u Kp=840 Lambda=0.09 Cgdmin=120p Cgdmax=1.8n A=0.6 Cgs=8.82n Cjo=5.87n M=0.3 Is=65.1p VJ=0.9 N=1.1 TT=3n ksubthres=.1 mfg=Infineon Vds=40 Ron=1.6m Qg=55n)
.model BSC017N04NS VDMOS(Rg=1.5 Vto=4.95 Rd=770u Rs=231u Rb=441u Kp=449.8 Lambda=0.03 Cgdmin=86p Cgdmax=1.2n A=0.6 Cgs=6.51n Cjo=5.87n M=0.3 Is=65.1p VJ=0.9 N=1.1 TT=3n ksubthres=.1 mfg=Infineon Vds=40 Ron=1.7m Qg=89n)
.model BSC018N04LS VDMOS(Rg=1.3 Vto=2.89 Rd=880u Rs=381u Rb=591u Kp=840 Lambda=0.09 Cgdmin=120p Cgdmax=1.8n A=0.6 Cgs=8.82n Cjo=5.87n M=0.3 Is=65.1p VJ=0.9 N=1.1 TT=3n ksubthres=.1 mfg=Infineon Vds=40 Ron=1.8m Qg=55n)
.model BSC018NE2LS VDMOS(Rg=0.8 Vto=2.33 Rd=640u Rs=365u Rb=945u Kp=590.6 Lambda=0.09 Cgdmin=51p Cgdmax=0.9n A=0.6 Cgs=2.71n Cjo=3.1n M=0.75 Is=30.7p VJ=2.5 N=1.12 TT=3n ksubthres=.1 mfg=Infineon Vds=25 Ron=1.8m Qg=19n)
.model BSC019N04NS VDMOS(Rg=1.3 Vto=4.95 Rd=770u Rs=381u Rb=591u Kp=449.8 Lambda=0.03 Cgdmin=86p Cgdmax=1.2n A=0.6 Cgs=6.51n Cjo=5.87n M=0.3 Is=65.1p VJ=0.9 N=1.1 TT=3n ksubthres=.1 mfg=Infineon Vds=40 Ron=1.9m Qg=89n)
.model BSC019NE2LSI VDMOS(Rg=0.8 Vto=2.33 Rd=680u Rs=365u Rb=2.61m Kp=511.8 Lambda=0.09 Cgdmin=51p Cgdmax=0.9n A=0.6 Cgs=2.42n Cjo=3.1n M=0.75 Is=30702p VJ=2.5 N=1.12 TT=1p ksubthres=.1 mfg=Infineon Vds=25 Ron=1.9m Qg=17n)
.model BSC020N03LS VDMOS(Rg=1.9 Vto=2.77 Rd=1.06m Rs=336u Rb=696u Kp=600.3 Lambda=0.09 Cgdmin=86p Cgdmax=1.28n A=0.6 Cgs=5.32n Cjo=5.15n M=0.3 Is=46.5p VJ=0.9 N=1.1 TT=3n ksubthres=.1 mfg=Infineon Vds=30 Ron=2m Qg=34n)
.model BSC020N03MS VDMOS(Rg=1.9 Vto=2.52 Rd=1m Rs=336u Rb=676u Kp=654.7 Lambda=0.07 Cgdmin=122p Cgdmax=1.71n A=0.6 Cgs=7.04n Cjo=5.15n M=0.3 Is=42.8p VJ=0.9 N=1.11 TT=3n ksubthres=.1 mfg=Infineon Vds=30 Ron=2.5m Qg=45n)
.model BSC024NE2LS VDMOS(Rg=0.9 Vto=2.33 Rd=1.07m Rs=331u Rb=1.31m Kp=351.5 Lambda=0.09 Cgdmin=30p Cgdmax=0.54n A=0.6 Cgs=1.61n Cjo=1.94n M=0.75 Is=18.3p VJ=2.5 N=1.12 TT=3n ksubthres=.1 mfg=Infineon Vds=25 Ron=2.4m Qg=11n)
.model BSC025N03LS VDMOS(Rg=1.6 Vto=2.77 Rd=1.32m Rs=271u Rb=721u Kp=476.8 Lambda=0.09 Cgdmin=68p Cgdmax=1.02n A=0.6 Cgs=4.23n Cjo=4.19n M=0.3 Is=36.9p VJ=0.9 N=1.1 TT=3n ksubthres=.1 mfg=Infineon Vds=30 Ron=2.5m Qg=27n)
.model BSC025N03MS VDMOS(Rg=1.6 Vto=2.52 Rd=1.24m Rs=271u Rb=701u Kp=520 Lambda=0.07 Cgdmin=97p Cgdmax=1.36n A=0.6 Cgs=5.59n Cjo=4.19n M=0.3 Is=34p VJ=0.9 N=1.11 TT=3n ksubthres=.1 mfg=Infineon Vds=30 Ron=3.0m Qg=36n)
.model BSC027N04LS VDMOS(Rg=1.6 Vto=2.89 Rd=1.52m Rs=271u Rb=641u Kp=476.8 Lambda=0.09 Cgdmin=68p Cgdmax=1.02n A=0.6 Cgs=5.01n Cjo=3.47n M=0.3 Is=36.9p VJ=0.9 N=1.1 TT=3n ksubthres=.1 mfg=Infineon Vds=40 Ron=2.7m Qg=31n)
.model BSC028N06LS3 VDMOS(Rg=1.3 Vto=2.5 Rd=1.45m Rs=408u Rb=728u Kp=348.8 Lambda=0.01 Cgdmin=28p Cgdmax=3.26n A=2.5 Cgs=9.91n Cjo=5.41n M=0.3 Is=15.8p VJ=0.9 N=1.06 TT=30n ksubthres=.1 mfg=Infineon Vds=60 Ron=2.8m Qg=59n)
.model BSC030N03LS VDMOS(Rg=1.5 Vto=2.77 Rd=1.74m Rs=254u Rb=854u Kp=356 Lambda=0.09 Cgdmin=51p Cgdmax=0.76n A=0.6 Cgs=3.16n Cjo=3.23n M=0.3 Is=27.6p VJ=0.9 N=1.1 TT=3n ksubthres=.1 mfg=Infineon Vds=30 Ron=3m Qg=20n)
.model BSC030N03MS VDMOS(Rg=1.5 Vto=2.52 Rd=1.65m Rs=254u Rb=834u Kp=388.3 Lambda=0.07 Cgdmin=73p Cgdmax=1.02n A=0.6 Cgs=4.17n Cjo=3.23n M=0.3 Is=25.4p VJ=0.9 N=1.11 TT=3n ksubthres=.1 mfg=Infineon Vds=30 Ron=3.8m Qg=27n)
.model BSC030N04NS VDMOS(Rg=1.6 Vto=4.95 Rd=1.32m Rs=271u Rb=641u Kp=255.3 Lambda=0.03 Cgdmin=49p Cgdmax=0.68n A=0.6 Cgs=3.69n Cjo=3.47n M=0.3 Is=36.9p VJ=0.9 N=1.1 TT=3n ksubthres=.1 mfg=Infineon Vds=40 Ron=3m Qg=50n)
.model BSC031N06NS3 VDMOS(Rg=1.3 Vto=4.35 Rd=1.45m Rs=408u Rb=948u Kp=260.4 Lambda=0.01 Cgdmin=19p Cgdmax=2.05n A=2.5 Cgs=7.91n Cjo=5.41n M=0.3 Is=15.8p VJ=0.9 N=1.06 TT=30n ksubthres=.1 mfg=Infineon Vds=60 Ron=3.1m Qg=98n)
.model BSC032NE2LS VDMOS(Rg=0.9 Vto=2.33 Rd=1.54m Rs=300u Rb=1.72m Kp=242.5 Lambda=0.09 Cgdmin=21p Cgdmax=0.37n A=0.6 Cgs=1.11n Cjo=1.4n M=0.75 Is=12.6p VJ=2.5 N=1.12 TT=3n ksubthres=.1 mfg=Infineon Vds=25 Ron=3.2m Qg=8n)
.model BSC034N03LS VDMOS(Rg=1.5 Vto=2.77 Rd=2.03m Rs=596u Rb=1.31m Kp=304.1 Lambda=0.09 Cgdmin=43p Cgdmax=0.65n A=0.6 Cgs=2.7n Cjo=2.81n M=0.3 Is=23.6p VJ=0.9 N=1.1 TT=3n ksubthres=.1 mfg=Infineon Vds=30 Ron=3.4m Qg=17n)
.model BSC035N04LS VDMOS(Rg=1.5 Vto=2.89 Rd=2.01m Rs=254u Rb=754u Kp=356 Lambda=0.09 Cgdmin=51p Cgdmax=0.76n A=0.6 Cgs=3.74n Cjo=2.65n M=0.3 Is=27.6p VJ=0.9 N=1.1 TT=3n ksubthres=.1 mfg=Infineon Vds=40 Ron=3.5m Qg=23n)
.model BSC042N03LS VDMOS(Rg=1.5 Vto=2.77 Rd=2.31m Rs=524u Rb=1.32m Kp=267.2 Lambda=0.09 Cgdmin=38p Cgdmax=0.57n A=0.6 Cgs=2.37n Cjo=2.51n M=0.3 Is=20.7p VJ=0.9 N=1.1 TT=3n ksubthres=.1 mfg=Infineon Vds=30 Ron=4.2m Qg=15n)
.model BSC042N03MS VDMOS(Rg=1.5 Vto=2.52 Rd=2.18m Rs=571u Rb=1.34m Kp=291.5 Lambda=0.07 Cgdmin=54p Cgdmax=0.76n A=0.6 Cgs=3.13n Cjo=2.51n M=0.3 Is=19.1p VJ=0.9 N=1.11 TT=3n ksubthres=.1 mfg=Infineon Vds=30 Ron=5.4m Qg=20n)
.model BSC042NE7NS3 VDMOS(Rg=2.2 Vto=4.2 Rd=2.11m Rs=404u Rb=1.38m Kp=160.4 Lambda=0.03 Cgdmin=23p Cgdmax=1.14n A=0.2 Cgs=3.53n Cjo=2.58n M=0.27 Is=68.9p VJ=0.9 N=1.16 TT=40n ksubthres=.1 mfg=Infineon Vds=75 Ron=5.2m Qg=51n)
.model BSC047N08NS3 VDMOS(Rg=2.2 Vto=3.9 Rd=2.4m Rs=404u Rb=1.38m Kp=160.4 Lambda=0.03 Cgdmin=23p Cgdmax=1.14n A=0.2 Cgs=3.53n Cjo=3.17n M=0.27 Is=68.9p VJ=0.9 N=1.16 TT=40n ksubthres=.1 mfg=Infineon Vds=80 Ron=4.7m Qg=51n)
.model BSC050N03LS VDMOS(Rg=1.4 Vto=2.77 Rd=2.77m Rs=473u Rb=1.44m Kp=221.7 Lambda=0.09 Cgdmin=32p Cgdmax=0.47n A=0.6 Cgs=1.97n Cjo=2.14n M=0.3 Is=17.2p VJ=0.9 N=1.1 TT=3n ksubthres=.1 mfg=Infineon Vds=30 Ron=5m Qg=13n)
.model BSC050N03MS VDMOS(Rg=1.4 Vto=2.52 Rd=2.62m Rs=520u Rb=1.45m Kp=241.8 Lambda=0.07 Cgdmin=45p Cgdmax=0.63n A=0.6 Cgs=2.6n Cjo=2.14n M=0.3 Is=15.8p VJ=0.9 N=1.11 TT=3n ksubthres=.1 mfg=Infineon Vds=30 Ron=6.3m Qg=17n)
.model BSC050N04LS VDMOS(Rg=1.5 Vto=2.89 Rd=2.66m Rs=524u Rb=1.19m Kp=267.2 Lambda=0.09 Cgdmin=38p Cgdmax=0.57n A=0.6 Cgs=2.81n Cjo=2.05n M=0.3 Is=20.7p VJ=0.9 N=1.1 TT=3n ksubthres=.1 mfg=Infineon Vds=40 Ron=5.0m Qg=17n)
.model BSC052N03LS VDMOS(Rg=0.65 Vto=2.3 Rd=2.64m Rs=276u Rb=2.46m Kp=154.6 Lambda=0.07 Cgdmin=19p Cgdmax=0.34n A=0.6 Cgs=0.72n Cjo=0.97n M=0.75 Is=8.2p VJ=2.5 N=1.12 TT=3n ksubthres=.1 mfg=Infineon Vds=30 Ron=5.2m Qg=5n)
.model BSC054N04NS VDMOS(Rg=1.5 Vto=4.95 Rd=2.31m Rs=567u Rb=1.24m Kp=143.1 Lambda=0.03 Cgdmin=27p Cgdmax=0.38n A=0.6 Cgs=2.07n Cjo=2.05n M=0.3 Is=20.7p VJ=0.9 N=1.1 TT=3n ksubthres=.1 mfg=Infineon Vds=40 Ron=5.4m Qg=28n)
.model BSC057N03LS VDMOS(Rg=1.3 Vto=2.77 Rd=3.19m Rs=455u Rb=1.58m Kp=192.1 Lambda=0.09 Cgdmin=27p Cgdmax=0.41n A=0.6 Cgs=1.7n Cjo=1.89n M=0.3 Is=14.9p VJ=0.9 N=1.1 TT=3n ksubthres=.1 mfg=Infineon Vds=30 Ron=5.7m Qg=11n)
.model BSC057N03MS VDMOS(Rg=1.3 Vto=2.52 Rd=3.01m Rs=502u Rb=1.57m Kp=209.5 Lambda=0.07 Cgdmin=39p Cgdmax=0.55n A=0.6 Cgs=2.25n Cjo=1.89n M=0.3 Is=13.7p VJ=0.9 N=1.11 TT=3n ksubthres=.1 mfg=Infineon Vds=30 Ron=7.2m Qg=14n)
.model BSC057N08NS3 VDMOS(Rg=1.9 Vto=3.9 Rd=2.96m Rs=404u Rb=1.61m Kp=129.7 Lambda=0.03 Cgdmin=18p Cgdmax=0.92n A=0.2 Cgs=2.86n Cjo=2.57n M=0.27 Is=55.7p VJ=0.9 N=1.16 TT=40n ksubthres=.1 mfg=Infineon Vds=80 Ron=5.7m Qg=42n)
.model BSC059N04LS VDMOS(Rg=1.4 Vto=2.89 Rd=3.2m Rs=473u Rb=1.28m Kp=221.7 Lambda=0.09 Cgdmin=32p Cgdmax=0.47n A=0.6 Cgs=2.33n Cjo=1.73n M=0.3 Is=17.2p VJ=0.9 N=1.1 TT=3n ksubthres=.1 mfg=Infineon Vds=40 Ron=5.9m Qg=14n)
.model BSC060N10NS3 VDMOS(Rg=1.6 Vto=3.63 Rd=3.91m Rs=404u Rb=1.1m Kp=155.8 Lambda=0.03 Cgdmin=18p Cgdmax=0.96n A=0.2 Cgs=3.67n Cjo=2.9n M=0.3 Is=172.1p VJ=0.9 N=1.19 TT=60n ksubthres=.1 mfg=Infineon Vds=100 Ron=6m Qg=51n)
.model BSC067N06LS3 VDMOS(Rg=1 Vto=2.5 Rd=3.72m Rs=634u Rb=1.48m Kp=132.8 Lambda=0.01 Cgdmin=11p Cgdmax=1.24n A=2.5 Cgs=3.8n Cjo=2.24n M=0.3 Is=6p VJ=0.9 N=1.06 TT=30n ksubthres=.1 mfg=Infineon Vds=60 Ron=6.7m Qg=23n)
.model BSC072N03LD VDMOS(Rg=1.5 Vto=2.77 Rd=2.32m Rs=3.33m Rb=4.14m Kp=265.6 Lambda=0.09 Cgdmin=38p Cgdmax=0.57n A=0.6 Cgs=2.36n Cjo=2.5n M=0.3 Is=20.6p VJ=0.9 N=1.1 TT=3n ksubthres=.1 mfg=Infineon Vds=30 Ron=7.2m Qg=15n)
.model BSC076N06NS3 VDMOS(Rg=1 Vto=4.35 Rd=3.72m Rs=634u Rb=2.04m Kp=99.1 Lambda=0.01 Cgdmin=7p Cgdmax=0.78n A=2.5 Cgs=3.01n Cjo=2.24n M=0.3 Is=6p VJ=0.9 N=1.06 TT=30n ksubthres=.1 mfg=Infineon Vds=60 Ron=7.6m Qg=37n)
.model BSC077N12NS3 VDMOS(Rg=1.3 Vto=4.15 Rd=4.56m Rs=450u Rb=1.73m Kp=91.9 Lambda=0.03 Cgdmin=24p Cgdmax=1.4n A=0.3 Cgs=4.26n Cjo=3.18n M=0.35 Is=21.3p VJ=0.8 N=1.11 TT=90n ksubthres=.1 mfg=Infineon Vds=120 Ron=7.7m Qg=65n)
.model BSC079N10NS VDMOS(Rg=1.3 Vto=4.15 Rd=4.56m Rs=450u Rb=1.73m Kp=91.9 Lambda=0.03 Cgdmin=24p Cgdmax=1.4n A=0.3 Cgs=4.26n Cjo=3.18n M=0.35 Is=21.3p VJ=0.8 N=1.11 TT=90n ksubthres=.1 mfg=Infineon Vds=100 Ron=7.9m Qg=65n)
.model BSC080N03LS VDMOS(Rg=1 Vto=2.77 Rd=4.61m Rs=414u Rb=2.03m Kp=132.4 Lambda=0.09 Cgdmin=19p Cgdmax=0.28n A=0.6 Cgs=1.17n Cjo=1.38n M=0.3 Is=10.3p VJ=0.9 N=1.1 TT=3n ksubthres=.1 mfg=Infineon Vds=30 Ron=8m Qg=8n)
.model BSC080N03MS VDMOS(Rg=1 Vto=2.52 Rd=4.35m Rs=461u Rb=2.02m Kp=144.5 Lambda=0.07 Cgdmin=27p Cgdmax=0.38n A=0.6 Cgs=1.55n Cjo=1.38n M=0.3 Is=9.5p VJ=0.9 N=1.11 TT=3n ksubthres=.1 mfg=Infineon Vds=30 Ron=10.2m Qg=10n)
.model BSC082N10LS VDMOS(Rg=1.3 Vto=2.9 Rd=5.75m Rs=450u Rb=1.92m Kp=289.2 Lambda=0.03 Cgdmin=24p Cgdmax=1.4n A=0.3 Cgs=5.49n Cjo=3.18n M=0.35 Is=21.3p VJ=0.8 N=1.07 TT=90n ksubthres=.1 mfg=Infineon Vds=100 Ron=8.2m Qg=36n)
.model BSC0901NS VDMOS(Rg=0.8 Vto=2.3 Rd=720u Rs=365u Rb=945u Kp=579.7 Lambda=0.07 Cgdmin=72p Cgdmax=1.26n A=0.6 Cgs=2.71n Cjo=3.1n M=0.75 Is=30.7p VJ=2.5 N=1.12 TT=3n ksubthres=.1 mfg=Infineon Vds=30 Ron=1.9m Qg=21n)
.model BSC0901NSI VDMOS(Rg=0.8 Vto=2.33 Rd=770u Rs=365u Rb=2.61m Kp=511.8 Lambda=0.09 Cgdmin=51p Cgdmax=1.26n A=0.6 Cgs=2.42n Cjo=3.1n M=0.75 Is=30702p VJ=2.5 N=1.12 TT=1p ksubthres=.1 mfg=Infineon Vds=30 Ron=2m Qg=19n)
.model BSC0902NS VDMOS(Rg=0.9 Vto=2.3 Rd=1.19m Rs=331u Rb=1.31m Kp=345.1 Lambda=0.07 Cgdmin=43p Cgdmax=0.75n A=0.6 Cgs=1.61n Cjo=1.94n M=0.75 Is=18.3p VJ=2.5 N=1.12 TT=3n ksubthres=.1 mfg=Infineon Vds=30 Ron=2.6m Qg=12n)
.model BSC0902NSI VDMOS(Rg=0.9 Vto=2.33 Rd=1.28m Rs=331u Rb=4.1m Kp=304.7 Lambda=0.09 Cgdmin=30p Cgdmax=0.75n A=0.6 Cgs=1.44n Cjo=1.94n M=0.75 Is=18275p VJ=2.5 N=1.12 TT=1p ksubthres=.1 mfg=Infineon Vds=30 Ron=2.8m Qg=11n)
.model BSC0904NSI VDMOS(Rg=0.9 Vto=2.33 Rd=1.84m Rs=301u Rb=5.76m Kp=210.1 Lambda=0.09 Cgdmin=21p Cgdmax=0.52n A=0.6 Cgs=0.99n Cjo=1.4n M=0.75 Is=12605.5p VJ=2.5 N=1.12 TT=1p ksubthres=.1 mfg=Infineon Vds=30 Ron=3.7m Qg=8n)
.model BSC0906NS VDMOS(Rg=4 Vto=2.3 Rd=2.34m Rs=276u Rb=2.21m Kp=174.8 Lambda=0.07 Cgdmin=22p Cgdmax=0.38n A=0.6 Cgs=0.82n Cjo=1.08n M=0.75 Is=9.3p VJ=2.5 N=1.12 TT=3n ksubthres=.1 mfg=Infineon Vds=30 Ron=4.5m Qg=6n)
.model BSC090N03LS VDMOS(Rg=1 Vto=2.77 Rd=5.13m Rs=407u Rb=2.22m Kp=118.7 Lambda=0.09 Cgdmin=17p Cgdmax=0.25n A=0.6 Cgs=1.05n Cjo=1.26n M=0.3 Is=9.2p VJ=0.9 N=1.1 TT=3n ksubthres=.1 mfg=Infineon Vds=30 Ron=9m Qg=7n)
.model BSC090N03MS VDMOS(Rg=1 Vto=2.52 Rd=4.84m Rs=454u Rb=2.19m Kp=129.5 Lambda=0.07 Cgdmin=24p Cgdmax=0.34n A=0.6 Cgs=1.39n Cjo=1.26n M=0.3 Is=8.5p VJ=0.9 N=1.11 TT=3n ksubthres=.1 mfg=Infineon Vds=30 Ron=11.2m Qg=9n)
.model BSC093N04LS VDMOS(Rg=1 Vto=2.89 Rd=5.32m Rs=461u Rb=1.81m Kp=132.4 Lambda=0.09 Cgdmin=19p Cgdmax=0.28n A=0.6 Cgs=1.39n Cjo=1.1n M=0.3 Is=10.3p VJ=0.9 N=1.1 TT=3n ksubthres=.1 mfg=Infineon Vds=40 Ron=9.3m Qg=9n)
.model BSC100N03LS VDMOS(Rg=0.9 Vto=2.77 Rd=5.49m Rs=402u Rb=2.34m Kp=110.9 Lambda=0.09 Cgdmin=16p Cgdmax=0.24n A=0.6 Cgs=0.98n Cjo=1.19n M=0.3 Is=8.6p VJ=0.9 N=1.1 TT=3n ksubthres=.1 mfg=Infineon Vds=30 Ron=10m Qg=6n)
.model BSC100N03MS VDMOS(Rg=0.9 Vto=2.52 Rd=5.18m Rs=449u Rb=2.31m Kp=120.9 Lambda=0.07 Cgdmin=23p Cgdmax=0.32n A=0.6 Cgs=1.3n Cjo=1.19n M=0.3 Is=7.9p VJ=0.9 N=1.11 TT=3n ksubthres=.1 mfg=Infineon Vds=30 Ron=12m Qg=8n)
.model BSC100N06LS3 VDMOS(Rg=1.3 Vto=2.5 Rd=5.61m Rs=546u Rb=1.83m Kp=87.8 Lambda=0.01 Cgdmin=7p Cgdmax=0.82n A=2.5 Cgs=2.53n Cjo=1.55n M=0.3 Is=4p VJ=0.9 N=1.06 TT=30n ksubthres=.1 mfg=Infineon Vds=60 Ron=10m Qg=15n)
.model BSC100N10NSF VDMOS(Rg=1.3 Vto=4.25 Rd=4.47m Rs=450u Rb=1.16m Kp=56.1 Lambda=0.03 Cgdmin=24p Cgdmax=0.7n A=0.3 Cgs=2.13n Cjo=2.24n M=0.35 Is=21.3p VJ=0.8 N=1.11 TT=90n ksubthres=.1 mfg=Infineon Vds=100 Ron=10m Qg=33n)
.model BSC105N10LSF VDMOS(Rg=1.3 Vto=2.8 Rd=5.54m Rs=450u Rb=1.92m Kp=129.3 Lambda=0.03 Cgdmin=24p Cgdmax=0.7n A=0.3 Cgs=2.75n Cjo=3.25n M=0.35 Is=21.3p VJ=0.8 N=1.07 TT=90n ksubthres=.1 mfg=Infineon Vds=100 Ron=10.5m Qg=18n)
.model BSC110N06NS3 VDMOS(Rg=1.3 Vto=4.35 Rd=5.61m Rs=546u Rb=2.69m Kp=65.5 Lambda=0.01 Cgdmin=5p Cgdmax=0.51n A=2.5 Cgs=1.99n Cjo=1.55n M=0.3 Is=4p VJ=0.9 N=1.06 TT=30n ksubthres=.1 mfg=Infineon Vds=60 Ron=11m Qg=25n)
.model BSC118N10NS VDMOS(Rg=1 Vto=4.15 Rd=7.09m Rs=349u Rb=2.35m Kp=59.1 Lambda=0.03 Cgdmin=15p Cgdmax=0.9n A=0.3 Cgs=2.74n Cjo=2.05n M=0.35 Is=13.7p VJ=0.8 N=1.11 TT=90n ksubthres=.1 mfg=Infineon Vds=100 Ron=11.8m Qg=42n)
.model BSC120N03LS VDMOS(Rg=0.9 Vto=2.77 Rd=6.33m Rs=414u Rb=2.65m Kp=96 Lambda=0.09 Cgdmin=14p Cgdmax=0.21n A=0.6 Cgs=0.85n Cjo=1.06n M=0.3 Is=7.4p VJ=0.9 N=1.1 TT=3n ksubthres=.1 mfg=Infineon Vds=30 Ron=12m Qg=5n)
.model BSC120N03MS VDMOS(Rg=0.9 Vto=2.52 Rd=5.97m Rs=414u Rb=2.56m Kp=104.8 Lambda=0.07 Cgdmin=20p Cgdmax=0.27n A=0.6 Cgs=1.13n Cjo=1.06n M=0.3 Is=6.9p VJ=0.9 N=1.11 TT=3n ksubthres=.1 mfg=Infineon Vds=30 Ron=14m Qg=7n)
.model BSC123N08NS3 VDMOS(Rg=2 Vto=3.9 Rd=6.5m Rs=603u Rb=3.3m Kp=58.4 Lambda=0.03 Cgdmin=8p Cgdmax=0.42n A=0.2 Cgs=1.29n Cjo=1.16n M=0.27 Is=25.1p VJ=0.9 N=1.16 TT=40n ksubthres=.1 mfg=Infineon Vds=80 Ron=12.3m Qg=19n)
.model BSC123N10LS VDMOS(Rg=1.0 Vto=2.9 Rd=8.95m Rs=349u Rb=2.64m Kp=185.9 Lambda=0.03 Cgdmin=15p Cgdmax=0.9n A=0.3 Cgs=3.53n Cjo=2.05n M=0.35 Is=13.7p VJ=0.8 N=1.07 TT=90n ksubthres=.1 mfg=Infineon Vds=100 Ron=12.3m Qg=23n)
.model BSC12DN20NS3 VDMOS(Rg=2.2 Vto=3.7 Rd=92.72m Rs=455u Rb=13.79m Kp=12.4 Lambda=0.015 Cgdmin=2p Cgdmax=0.07n A=0.5 Cgs=0.45n Cjo=0.68n M=0.45 Is=4.3p VJ=0.9 N=1.12 TT=120n ksubthres=.1 mfg=Infineon Vds=200 Ron=125m Qg=6n)
.model BSC150N03LD VDMOS(Rg=1.2 Vto=2.77 Rd=7.16m Rs=3.25m Rb=5.78m Kp=84.9 Lambda=0.09 Cgdmin=12p Cgdmax=0.18n A=0.6 Cgs=0.75n Cjo=0.96n M=0.3 Is=6.6p VJ=0.9 N=1.1 TT=3n ksubthres=.1 mfg=Infineon Vds=30 Ron=15m Qg=5n)
.model BSC152N10NSF VDMOS(Rg=1.0 Vto=4.25 Rd=6.95m Rs=349u Rb=1.46m Kp=36 Lambda=0.03 Cgdmin=15p Cgdmax=0.45n A=0.3 Cgs=1.37n Cjo=1.44n M=0.35 Is=13.7p VJ=0.8 N=1.11 TT=90n ksubthres=.1 mfg=Infineon Vds=100 Ron=15.2m Qg=21n)
.model BSC159N10LSF VDMOS(Rg=1.0 Vto=2.8 Rd=8.61m Rs=349u Rb=2.64m Kp=83.1 Lambda=0.03 Cgdmin=15p Cgdmax=0.45n A=0.3 Cgs=1.77n Cjo=2.09n M=0.35 Is=13.7p VJ=0.8 N=1.07 TT=90n ksubthres=.1 mfg=Infineon Vds=100 Ron=15.9m Qg=11n)
.model BSC160N10NS3 VDMOS(Rg=1.3 Vto=3.63 Rd=10.66m Rs=603u Rb=2.51m Kp=56.8 Lambda=0.03 Cgdmin=7p Cgdmax=0.35n A=0.2 Cgs=1.34n Cjo=1.06n M=0.3 Is=62.7p VJ=0.9 N=1.19 TT=60n ksubthres=.1 mfg=Infineon Vds=100 Ron=16m Qg=19n)
.model BSC16DN25NS3 VDMOS(Rg=2.4 Vto=3.7 Rd=132.01m Rs=561u Rb=10.05m Kp=17.4 Lambda=0.015 Cgdmin=2p Cgdmax=0.09n A=0.5 Cgs=0.63n Cjo=0.95n M=0.48 Is=6p VJ=0.9 N=1.12 TT=150n ksubthres=.1 mfg=Infineon Vds=250 Ron=165m Qg=8n)
.model BSC190N12NS3 VDMOS(Rg=1.5 Vto=4.15 Rd=11.96m Rs=276u Rb=3.65m Kp=35 Lambda=0.03 Cgdmin=9p Cgdmax=0.53n A=0.3 Cgs=1.62n Cjo=1.21n M=0.35 Is=8.1p VJ=0.8 N=1.11 TT=90n ksubthres=.1 mfg=Infineon Vds=120 Ron=19m Qg=25n)
.model BSC190N15NS3 VDMOS(Rg=2.4 Vto=4.4 Rd=11.97m Rs=404u Rb=1.61m Kp=49.8 Lambda=0.02 Cgdmin=6p Cgdmax=0.27n A=0.5 Cgs=1.81n Cjo=2.72n M=0.4 Is=68.9p VJ=0.9 N=1.185 TT=100n ksubthres=.1 mfg=Infineon Vds=150 Ron=19m Qg=23n)
.model BSC196N10NS VDMOS(Rg=1.5 Vto=4.15 Rd=11.96m Rs=276u Rb=3.65m Kp=35 Lambda=0.03 Cgdmin=9p Cgdmax=0.53n A=0.3 Cgs=1.62n Cjo=1.21n M=0.35 Is=8.1p VJ=0.8 N=1.11 TT=90n ksubthres=.1 mfg=Infineon Vds=100 Ron=19.6m Qg=25n)
.model BSC205N10LS VDMOS(Rg=1.5 Vto=2.9 Rd=15.1m Rs=276u Rb=4.15m Kp=110.1 Lambda=0.03 Cgdmin=9p Cgdmax=0.53n A=0.3 Cgs=2.09n Cjo=1.21n M=0.35 Is=8.1p VJ=0.8 N=1.07 TT=90n ksubthres=.1 mfg=Infineon Vds=100 Ron=20.5m Qg=14n)
.model BSC22DN20NS3 VDMOS(Rg=2 Vto=3.7 Rd=163.71m Rs=233u Rb=23.78m Kp=7 Lambda=0.015 Cgdmin=1p Cgdmax=0.04n A=0.5 Cgs=0.25n Cjo=0.38n M=0.45 Is=2.4p VJ=0.9 N=1.12 TT=120n ksubthres=.1 mfg=Infineon Vds=200 Ron=225m Qg=3n)
.model BSC240N12NS3 VDMOS(Rg=1.5 Vto=4.15 Rd=15.14m Rs=367u Rb=4.63m Kp=27.7 Lambda=0.03 Cgdmin=7p Cgdmax=0.42n A=0.3 Cgs=1.28n Cjo=0.96n M=0.35 Is=6.4p VJ=0.8 N=1.11 TT=90n ksubthres=.1 mfg=Infineon Vds=120 Ron=24m Qg=20n)
.model BSC252N10NSF VDMOS(Rg=1.5 Vto=4.25 Rd=11.72m Rs=276u Rb=2.15m Kp=21.3 Lambda=0.03 Cgdmin=9p Cgdmax=0.26n A=0.3 Cgs=0.81n Cjo=0.85n M=0.35 Is=8.1p VJ=0.8 N=1.11 TT=90n ksubthres=.1 mfg=Infineon Vds=100 Ron=25.2m Qg=12n)
.model BSC265N10LSF VDMOS(Rg=1.5 Vto=2.8 Rd=14.53m Rs=276u Rb=4.15m Kp=49.2 Lambda=0.03 Cgdmin=9p Cgdmax=0.26n A=0.3 Cgs=1.05n Cjo=1.24n M=0.35 Is=8.1p VJ=0.8 N=1.07 TT=90n ksubthres=.1 mfg=Infineon Vds=100 Ron=26.5m Qg=7n)
.model BSC320N20NS3 VDMOS(Rg=2.4 Vto=3.7 Rd=23.61m Rs=404u Rb=3.79m Kp=48.7 Lambda=0.015 Cgdmin=6p Cgdmax=0.27n A=0.5 Cgs=1.77n Cjo=2.66n M=0.45 Is=16.8p VJ=0.9 N=1.12 TT=120n ksubthres=.1 mfg=Infineon Vds=200 Ron=32m Qg=22n)
.model BSC340N08NS3 VDMOS(Rg=1.1 Vto=3.9 Rd=18.1m Rs=364u Rb=7.9m Kp=20.9 Lambda=0.03 Cgdmin=3p Cgdmax=0.15n A=0.2 Cgs=0.46n Cjo=0.41n M=0.27 Is=9p VJ=0.9 N=1.16 TT=40n ksubthres=.1 mfg=Infineon Vds=80 Ron=34m Qg=7n)
.model BSC360N15NS3 VDMOS(Rg=2.1 Vto=4.4 Rd=24.34m Rs=251u Rb=2.72m Kp=24.5 Lambda=0.02 Cgdmin=3p Cgdmax=0.13n A=0.5 Cgs=0.89n Cjo=1.33n M=0.4 Is=33.8p VJ=0.9 N=1.185 TT=100n ksubthres=.1 mfg=Infineon Vds=150 Ron=36m Qg=11n)
.model BSC42DN25NS3 VDMOS(Rg=2 Vto=3.7 Rd=327.37m Rs=233u Rb=23.78m Kp=7 Lambda=0.015 Cgdmin=1p Cgdmax=0.04n A=0.5 Cgs=0.25n Cjo=0.38n M=0.48 Is=2.4p VJ=0.9 N=1.12 TT=150n ksubthres=.1 mfg=Infineon Vds=250 Ron=425m Qg=3n)
.model BSC440N10NS3 VDMOS(Rg=0.8 Vto=3.63 Rd=29.71m Rs=364u Rb=5.7m Kp=20.3 Lambda=0.03 Cgdmin=2p Cgdmax=0.13n A=0.2 Cgs=0.6n Cjo=0.49n M=0.3 Is=22.4p VJ=0.9 N=1.19 TT=60n ksubthres=.1 mfg=Infineon Vds=100 Ron=44m Qg=8n)
.model BSC520N15NS3 VDMOS(Rg=2.1 Vto=4.4 Rd=32.58m Rs=603u Rb=3.91m Kp=18.3 Lambda=0.02 Cgdmin=2p Cgdmax=0.1n A=0.5 Cgs=0.66n Cjo=1n M=0.4 Is=25.2p VJ=0.9 N=1.185 TT=100n ksubthres=.1 mfg=Infineon Vds=150 Ron=52m Qg=9n)
.model BSC600N25NS3 VDMOS(Rg=2.4 Vto=3.7 Rd=47.17m Rs=404u Rb=3.79m Kp=48.7 Lambda=0.015 Cgdmin=6p Cgdmax=0.27n A=0.5 Cgs=1.77n Cjo=2.66n M=0.48 Is=16.8p VJ=0.9 N=1.12 TT=150n ksubthres=.1 mfg=Infineon Vds=250 Ron=60m Qg=21n RthetaJA=50 Imult=50 Iexponent=.4 R6=21.5m C6=.291u R5=52m C5=.457u R4=215m C4=1.78m R3=676m C3=11.1m R2=102m C2=2.38m R1=9.39m C1=.972u)
.model BSC750N10ND VDMOS(Rg=0.8 Vto=4.15 Rd=41.21m Rs=5.06m Rb=16.69m Kp=10.2 Lambda=0.03 Cgdmin=3p Cgdmax=0.15n A=0.3 Cgs=0.47n Cjo=0.35n M=0.35 Is=2.4p VJ=0.8 N=1.11 TT=90n ksubthres=.1 mfg=Infineon Vds=100 Ron=75m Qg=7n)
.model BSC900N20NS3 VDMOS(Rg=2.4 Vto=3.7 Rd=66.03m Rs=561u Rb=10.05m Kp=17.4 Lambda=0.015 Cgdmin=2p Cgdmax=0.09n A=0.5 Cgs=0.63n Cjo=0.95n M=0.45 Is=6p VJ=0.9 N=1.12 TT=120n ksubthres=.1 mfg=Infineon Vds=200 Ron=90m Qg=8n)
.model BSF024N03LT3 VDMOS(Rg=0.5 Vto=2.77 Rd=1.51m Rs=300u Rb=820u Kp=415 Lambda=0.09 Cgdmin=59p Cgdmax=0.89n A=0.6 Cgs=3.68n Cjo=3.7n M=0.3 Is=32.1p VJ=0.9 N=1.1 TT=3n ksubthres=.1 mfg=Infineon Vds=30 Ron=2.4m Qg=24n)
.model BSF024N03MT3 VDMOS(Rg=0.5 Vto=2.52 Rd=1.43m Rs=300u Rb=800u Kp=452.6 Lambda=0.07 Cgdmin=85p Cgdmax=1.18n A=0.6 Cgs=4.86n Cjo=3.7n M=0.3 Is=29.6p VJ=0.9 N=1.11 TT=3n ksubthres=.1 mfg=Infineon Vds=30 Ron=2.4m Qg=31n)
.model BSF030NE2LQ VDMOS(Rg=0.5 Vto=2.33 Rd=1.72m Rs=123u Rb=1.08m Kp=358.1 Lambda=0.09 Cgdmin=31p Cgdmax=0.55n A=0.6 Cgs=1.64n Cjo=1.98n M=0.75 Is=18.6p VJ=2.5 N=1.12 TT=3n ksubthres=.1 mfg=Infineon Vds=25 Ron=3m Qg=11n)
.model BSF045N03LQ3 VDMOS(Rg=1.4 Vto=2.77 Rd=2.81m Rs=348u Rb=1.33m Kp=219.7 Lambda=0.09 Cgdmin=31p Cgdmax=0.47n A=0.6 Cgs=1.95n Cjo=2.12n M=0.3 Is=17p VJ=0.9 N=1.1 TT=3n ksubthres=.1 mfg=Infineon Vds=30 Ron=4.5m Qg=13n)
.model BSF045N03MQ3 VDMOS(Rg=1.4 Vto=2.52 Rd=2.65m Rs=348u Rb=1.29m Kp=239.7 Lambda=0.07 Cgdmin=45p Cgdmax=0.63n A=0.6 Cgs=2.58n Cjo=2.12n M=0.3 Is=15.7p VJ=0.9 N=1.11 TT=3n ksubthres=.1 mfg=Infineon Vds=30 Ron=4.5m Qg=17n)
.model BSF050N03LQ3 VDMOS(Rg=0.4 Vto=2.77 Rd=3.19m Rs=258u Rb=1.38m Kp=192.7 Lambda=0.09 Cgdmin=27p Cgdmax=0.41n A=0.6 Cgs=1.71n Cjo=1.9n M=0.3 Is=14.9p VJ=0.9 N=1.1 TT=3n ksubthres=.1 mfg=Infineon Vds=30 Ron=5m Qg=11n)
.model BSF050N03MQ3 VDMOS(Rg=0.5 Vto=2.52 Rd=3.01m Rs=258u Rb=1.33m Kp=210.1 Lambda=0.07 Cgdmin=39p Cgdmax=0.55n A=0.6 Cgs=2.26n Cjo=1.9n M=0.3 Is=13.7p VJ=0.9 N=1.11 TT=3n ksubthres=.1 mfg=Infineon Vds=30 Ron=5m Qg=15n)
.model BSF885N03LQ3 VDMOS(Rg=0.4 Vto=2.77 Rd=3.19m Rs=258u Rb=1.38m Kp=192.7 Lambda=0.09 Cgdmin=27p Cgdmax=0.41n A=0.6 Cgs=1.71n Cjo=1.9n M=0.3 Is=14.9p VJ=0.9 N=1.1 TT=3n ksubthres=.1 mfg=Infineon Vds=30 Ron=5m Qg=11n)
.model BSH114 VDMOS(Rg=3 Rd=.2 Rs=.2 Vto=3 Kp=1.5 Cgdmax=.2n Cgdmin=.02n Cgs=.3n Cjo=.09n Is=9.2p Rb=.3 ksubthres=.1 mfg=NXP Vds=100 Ron=.5 Qg=4.6n)
.model BSO033N03MS VDMOS(Rg=1.9 Vto=2.52 Rd=1.19m Rs=1.31m Rb=1.65m Kp=654.8 Lambda=0.07 Cgdmin=122p Cgdmax=1.71n A=0.6 Cgs=7.04n Cjo=5.15n M=0.3 Is=42.8p VJ=0.9 N=1.11 TT=3n ksubthres=.1 mfg=Infineon Vds=30 Ron=3.8m Qg=45n)
.model BSO040N03MS VDMOS(Rg=1.5 Vto=2.52 Rd=1.89m Rs=1.21m Rb=1.79m Kp=388.3 Lambda=0.07 Cgdmin=73p Cgdmax=1.02n A=0.6 Cgs=4.17n Cjo=3.23n M=0.3 Is=25.4p VJ=0.9 N=1.11 TT=3n ksubthres=.1 mfg=Infineon Vds=30 Ron=4.9m Qg=27n)
.model BSO051N03MS VDMOS(Rg=1.5 Vto=2.52 Rd=2.45m Rs=1.43m Rb=2.2m Kp=291.5 Lambda=0.07 Cgdmin=54p Cgdmax=0.76n A=0.6 Cgs=3.13n Cjo=2.51n M=0.3 Is=19.1p VJ=0.9 N=1.11 TT=3n ksubthres=.1 mfg=Infineon Vds=30 Ron=6.2m Qg=20n)
.model BSO065N03MS VDMOS(Rg=1.3 Vto=2.52 Rd=3.34m Rs=1.44m Rb=2.51m Kp=209.5 Lambda=0.07 Cgdmin=39p Cgdmax=0.55n A=0.6 Cgs=2.25n Cjo=1.89n M=0.3 Is=13.7p VJ=0.9 N=1.11 TT=3n ksubthres=.1 mfg=Infineon Vds=30 Ron=8m Qg=14n)
.model BSO070N08NS3 VDMOS(Rg=1.9 Vto=3.9 Rd=3.12m Rs=1.24m Rb=2.45m Kp=129.7 Lambda=0.03 Cgdmin=18p Cgdmax=0.92n A=0.2 Cgs=2.86n Cjo=2.57n M=0.27 Is=55.7p VJ=0.9 N=1.16 TT=40n ksubthres=.1 mfg=Infineon Vds=80 Ron=7m Qg=42n)
.model BSO083N03MS VDMOS(Rg=1 Vto=2.52 Rd=4.77m Rs=1.3m Rb=2.86m Kp=144.5 Lambda=0.07 Cgdmin=27p Cgdmax=0.38n A=0.6 Cgs=1.55n Cjo=1.38n M=0.3 Is=9.5p VJ=0.9 N=1.11 TT=3n ksubthres=.1 mfg=Infineon Vds=30 Ron=10.5m Qg=10n)
.model BSO110N03MS VDMOS(Rg=0.9 Vto=2.52 Rd=6.51m Rs=1.46m Rb=3.61m Kp=104.8 Lambda=0.07 Cgdmin=20p Cgdmax=0.27n A=0.6 Cgs=1.13n Cjo=1.06n M=0.3 Is=6.9p VJ=0.9 N=1.11 TT=3n ksubthres=.1 mfg=Infineon Vds=30 Ron=13.9m Qg=7n)
.model BSO130N03MS VDMOS(Rg=1.1 Vto=2.52 Rd=7.69m Rs=2.09m Rb=4.64m Kp=88.3 Lambda=0.07 Cgdmin=17p Cgdmax=0.23n A=0.6 Cgs=0.95n Cjo=0.92n M=0.3 Is=5.8p VJ=0.9 N=1.11 TT=3n ksubthres=.1 mfg=Infineon Vds=30 Ron=16.6m Qg=6n)
.model BSO140N08NS3 VDMOS(Rg=2 Vto=3.9 Rd=6.7m Rs=1.73m Rb=4.43m Kp=58.4 Lambda=0.03 Cgdmin=8p Cgdmax=0.42n A=0.2 Cgs=1.29n Cjo=1.16n M=0.27 Is=25.1p VJ=0.9 N=1.16 TT=40n ksubthres=.1 mfg=Infineon Vds=80 Ron=14m Qg=19n)
.model BSO150N03MD VDMOS(Rg=1.1 Vto=2.52 Rd=7.87m Rs=3.52m Rb=6.07m Kp=88.3 Lambda=0.07 Cgdmin=17p Cgdmax=0.23n A=0.6 Cgs=0.95n Cjo=0.92n M=0.3 Is=5.8p VJ=0.9 N=1.11 TT=3n ksubthres=.1 mfg=Infineon Vds=30 Ron=18.2m Qg=6n)
.model BSO180N10NS3 VDMOS(Rg=1.3 Vto=3.63 Rd=10.86m Rs=1.73m Rb=3.64m Kp=56.8 Lambda=0.03 Cgdmin=7p Cgdmax=0.35n A=0.2 Cgs=1.34n Cjo=1.06n M=0.3 Is=62.7p VJ=0.9 N=1.19 TT=60n ksubthres=.1 mfg=Infineon Vds=100 Ron=18m Qg=19n)
.model BSO220N03MD VDMOS(Rg=1.3 Vto=2.52 Rd=12.27m Rs=3.06m Rb=7.14m Kp=55.1 Lambda=0.07 Cgdmin=10p Cgdmax=0.14n A=0.6 Cgs=0.59n Cjo=0.64n M=0.3 Is=3.6p VJ=0.9 N=1.11 TT=3n ksubthres=.1 mfg=Infineon Vds=30 Ron=27m Qg=4n)
.model BSO220N03MS VDMOS(Rg=1.3 Vto=2.52 Rd=12.22m Rs=2.73m Rb=6.81m Kp=55.1 Lambda=0.07 Cgdmin=10p Cgdmax=0.14n A=0.6 Cgs=0.59n Cjo=0.64n M=0.3 Is=3.6p VJ=0.9 N=1.11 TT=3n ksubthres=.1 mfg=Infineon Vds=30 Ron=27m Qg=4n)
.model BSO350N08NS3 VDMOS(Rg=1.1 Vto=3.9 Rd=18.43m Rs=1.9m Rb=9.44m Kp=20.9 Lambda=0.03 Cgdmin=3p Cgdmax=0.15n A=0.2 Cgs=0.46n Cjo=0.41n M=0.27 Is=9p VJ=0.9 N=1.16 TT=40n ksubthres=.1 mfg=Infineon Vds=80 Ron=35m Qg=7n)
.model BSO440N10NS3 VDMOS(Rg=0.8 Vto=3.63 Rd=30.04m Rs=1.9m Rb=7.24m Kp=20.3 Lambda=0.03 Cgdmin=2p Cgdmax=0.13n A=0.2 Cgs=0.6n Cjo=0.49n M=0.3 Is=22.4p VJ=0.9 N=1.19 TT=60n ksubthres=.1 mfg=Infineon Vds=100 Ron=44m Qg=8n)
.model BSS123 VDMOS(Rg=3 Rd=2.4 Rs=1.8 Vto=1.6 Kp=1 Cgdmax=.1n Cgdmin=.01n Cgs=.1n Cjo=.03n Is=2.8p Rb=3 ksubthres=.1 mfg=Fairchild Vds=100 Ron=6 Qg=1.4n)
.model BSS145 VDMOS(Rg=3 Vto=2.8 Rd=1.4 Rs=1 Rb=1.75 Kp=.15 Cgdmax=.08n Cgdmin=.001n Cgs=.01n Cjo=.004n Is=.5p ksubthres=.1 mfg=Infineon Vds=100 Ron=3500m Qg=2n)
.model BSS84 VDMOS(pchan Rg=3 Vto=-2.1 Rd=2.4 Rs=1.8 Rb=3 Kp=.2 Cgdmax=.04n Cgdmin=.001n Cgs=.02n Cjo=.01n Is=2p ksubthres=.1 mfg=NXP Vds=-50 Ron=6000m Qg=1n)
.model BSZ018NE2LS VDMOS(Rg=0.8 Vto=2.33 Rd=640u Rs=662u Rb=1.24m Kp=590.6 Lambda=0.09 Cgdmin=51p Cgdmax=0.9n A=0.6 Cgs=2.71n Cjo=3.1n M=0.75 Is=30.7p VJ=2.5 N=1.12 TT=3n ksubthres=.1 mfg=Infineon Vds=25 Ron=1.8m Qg=19n)
.model BSZ019N03LS VDMOS(Rg=0.8 Vto=2.3 Rd=720u Rs=662u Rb=1.24m Kp=579.7 Lambda=0.07 Cgdmin=72p Cgdmax=1.26n A=0.6 Cgs=2.71n Cjo=3.1n M=0.75 Is=30.7p VJ=2.5 N=1.12 TT=3n ksubthres=.1 mfg=Infineon Vds=30 Ron=1.9m Qg=21n)
.model BSZ035N03LS VDMOS(Rg=1.8 Vto=2.77 Rd=1.73m Rs=586u Rb=1.19m Kp=359.9 Lambda=0.09 Cgdmin=51p Cgdmax=0.77n A=0.6 Cgs=3.19n Cjo=3.26n M=0.3 Is=27.9p VJ=0.9 N=1.1 TT=3n ksubthres=.1 mfg=Infineon Vds=30 Ron=3.5m Qg=20n)