**********
* Copyright Intusoft 1997
* All Rights Reserved
**********
*********************************************************
*    STANDARD TTL DIGITAL LIBRARY BASED ON THE TEXAS    *
*           INSTRUMENTS DATA BOOK (Volume 1)		    * 		
*									                    *
*DEVELOPPED FOR INTUSOFT BY JEAN-CLAUDE MBOLI		    *
*Phone:(33) 4 76 44 43 30	    Fax:(33) 4 76 44 43 52  * 
*e-mail:101736.631@compuserve.com				        *
*									                    *
*				September 1996              			*
*				  					                    *
*********************************************************
**********************
*SRC=54152A;54152A;TTL;54xx;2 input NAND 
*SYM=T54152A
*54152A MULTIPLEXER/DATA SELECTOR 8-1 LINE 
***
.subckt 54152A s0 s1 s2 i0 i1 i2 i3 i4
+ i5 i6 i7 w 
*FAMILY TTLin TTLin TTLin TTLin TTLin TTLin TTLin TTLin TTLin
+ TTLin TTLin TTLout
*pinout W 10 9 8 5 4 3 2 1 13 12 11 6:VCC=14 GND=7

x1 i0 i1 s0 a1 mux2-1
x2 i2 i3 s0 a2 mux2-1
x3 i4 i5 s0 a3 mux2-1
x4 i6 i7 s0 a4 mux2-1
x5 a1 a2 s1 b1 mux2-1
x6 a3 a4 s1 b2 mux2-1
x7 b1 b2 s2 y mux2-1

ainv2 y w ls_inv

.subckt mux2-1 a b c y
ainv c cb inv
aand1 [a cb] p1 and
aand2 [b c] p2 and
aor [p1 p2] y or
.model and d_and
.model or d_or
.model inv d_inverter
.ends mux2-1

.model ls_inva d_inverter(rise_delay=1n fall_delay=1n)
.model ls_inv d_inverter
.model ls_tri d_tristate(delay=18n)

.ends
*
*
**********************
*SRC=5400;5400;TTL;54xx;2 input NAND gate
*SYM=NAND2
*5400 QUADRUPLE 2-INPUT POSITIVE-NAND GATES
***
.subckt 5400 in1 in2 out
*FAMILY TTLin TTLin TTLout
*pinout N 1 2 3;4 5 6;9 10 8;12 13 11:VCC=14 GND=7
*pinout J 1 2 3;4 5 6;9 10 8;12 13 11:VCC=14 GND=7
*pinout W 1 2 3;6 7 5;9 10 8;12 13 14:VCC=4 GND=11
anand [in1 in2] out ls_nand 
.model ls_nand d_nand(rise_delay=11n fall_delay=7n)
.ends
*
*
**********************
*SRC=5402;5402;TTL;54xx;2 input NOR gate
*SYM=NOR2
*5402 QUADRUPLE 2-INPUT POSITIVE-NOR GATES
***
.subckt 5402 in1 in2 out
*FAMILY TTLin TTLin TTLout
*pinout N 2 3 1;5 6 4;8 9 10;11 12 13:VCC=14 GND=7
*pinout J 2 3 1;5 6 4;8 9 10;11 12 13:VCC=14 GND=7
*pinout W 1 2 3;6 7 5;9 10 8;12 13 14:VCC=4 GND=11
anor [in1 in2] out ls_nor 
.model ls_nor d_nor(rise_delay=12n fall_delay=8n)
.ends
*
*
**********************
*SRC=5404;5404;TTL;54xx;inverter
*SYM=INV
*5404 HEX INVERTERS
***
.subckt 5404 in out
*FAMILY TTLin TTLout
*pinout N 1 2;3 4;5 6;9 8;11 10;13 12:VCC=14 GND=7
*pinout J 1 2;3 4;5 6;9 8;11 10;13 12:VCC=14 GND=7
*pinout W 1 14;3 2;5 6;7 8;9 10;13 12:VCC=4 GND=11
ainv in out ls_inv 
.model ls_inv d_inverter(rise_delay=12n fall_delay=8n)
.ends
*
*

**********************
*SRC=5405;5405;TTL;54xx;inverter
*SYM=INV
*5405 HEX INVERTERS
*WITH OPEN COLLECTOR OUTPUTS
***
.subckt 5405 in out
*FAMILY TTLin TTLout
*pinout N 1 2;3 4;5 6;9 8;11 10;13 12:VCC=14 GND=7
*pinout J 1 2;3 4;5 6;9 8;11 10;13 12:VCC=14 GND=7
*pinout W 1 14;3 2;5 6;7 8;9 10;13 12:VCC=4 GND=11
ainv in outi ls_inv
aopenc outi out ls_openc

.model ls_openc d_open_c(open_delay=1p fall_delay=1p) 
.model ls_inv d_inverter(rise_delay=40n fall_delay=8n)
.ends
*
*
**********************
*SRC=5406;5406;TTL;54xx;inverter buffer
*SYM=INV
*5406 HEX INVERTER BUFFERS/DRIVERS
*WITH OPEN COLLECTOR HIGH VOLTAGE OUTPUTS
***
.subckt 5406 in out
*FAMILY TTLin TTLout
*pinout N 1 2;3 4;5 6;9 8;11 10;13 12:VCC=14 GND=7
*pinout J 1 2;3 4;5 6;9 8;11 10;13 12:VCC=14 GND=7
*pinout W 1 2;3 4;5 6;9 8;11 10;13 12:VCC=14 GND=7
ainv in outi ls_inv
aopenc outi out ls_openc

.model ls_openc d_open_c(open_delay=1p fall_delay=1p) 
.model ls_inv d_inverter(rise_delay=10n fall_delay=15n)
.ends
*
*
**********************
*SRC=5407;5407;TTL;54xx;buffer/driver
*SYM=BUF
*5407 HEX BUFFERS/DRIVERS
*WITH OPEN COLLECTOR HIGH-VOLTAGE OUTPUTS
***
.subckt 5407 in out
*FAMILY TTLin TTLout
*pinout N 1 2;3 4;5 6;9 8;11 10;13 12:VCC=14 GND=7
*pinout J 1 2;3 4;5 6;9 8;11 10;13 12:VCC=14 GND=7
*pinout W 1 2;3 4;5 6;9 8;11 10;13 12:VCC=14 GND=7
abuf in outi ls_buf
aopenc outi out ls_openc

.model ls_openc d_open_c(open_delay=1p fall_delay=1p)  
.model ls_buf d_buffer(rise_delay=6n fall_delay=20n)
.ends
*
*
**********************
*SRC=5408;5408;TTL;54xx;2 input AND gate
*SYM=AND2
*5408 QUADRUPLE 2-INPUT POSITIVE-AND GATES
***
.subckt 5408 in1 in2 out
*FAMILY TTLin TTLin TTLout
*pinout N 1 2 3;4 5 6;9 10 8;12 13 11:VCC=14 GND=7
*pinout J 1 2 3;4 5 6;9 10 8;12 13 11:VCC=14 GND=7
*pinout W 1 2 3;4 5 6;9 10 8;12 13 11:VCC=14 GND=7
aand [in1 in2] out ls_and 
.model ls_and d_and(rise_delay=17.5n fall_delay=12n)
.ends
*
*
**********************
*SRC=5409;5409;TTL;54xx;2 input AND gate
*SYM=AND2
*5409 QUADRUPLE 2-INPUT POSITIVE-AND GATES
*WITH OPEN COLLECTOR OUTPUTS
***
.subckt 5409 in1 in2 out
*FAMILY TTLin TTLin TTLout
*pinout N 1 2 3;4 5 6;9 10 8;12 13 11:VCC=14 GND=7
*pinout J 1 2 3;4 5 6;9 10 8;12 13 11:VCC=14 GND=7
*pinout W 1 2 3;4 5 6;9 10 8;12 13 11:VCC=14 GND=7
aand [in1 in2] outi ls_and 
aopenc outi out ls_openc
.model ls_openc d_open_c(open_delay=1p fall_delay=1p)  
.model ls_and d_and(rise_delay=21n fall_delay=16n)
.ends
*
*
**********************
*SRC=5410;5410;TTL;54xx;3 input NAND gate
*SYM=NAND3
*5410 TRIPLE 3-INPUT POSITIVE-NAND GATES
***
.subckt 5410 in1 in2 in3 out
*FAMILY TTLin TTLin TTLin TTLout
*pinout N 1 2 13 12;3 4 5 6;9 10 11 8:VCC=14 GND=7
*pinout J 1 2 13 12;3 4 5 6;9 10 11 8:VCC=14 GND=7
*pinout W 1 2 14 3;6 7 8 5;9 10 12 13:VCC=4 GND=11
anand [in1 in2 in3] out ls_nand 
.model ls_nand d_nand(rise_delay=11n fall_delay=7n)
.ends
*
*
**********************
*SRC=5411;5411;TTL;54xx;3 input AND gate
*SYM=AND3
*5411 TRIPLE 3-INPUT POSITIVE-AND GATES
***
.subckt 5411 in1 in2 in3 out
*FAMILY TTLin TTLin TTLin TTLout
*pinout N 1 2 13 12;3 4 5 6;9 10 11 8:VCC=14 GND=7
*pinout J 1 2 13 12;3 4 5 6;9 10 11 8:VCC=14 GND=7
*pinout W 1 2 14 3;6 7 8 5;9 10 12 13:VCC=4 GND=11
aand [in1 in2 in3] out ls_and 
.model ls_and d_and(rise_delay=8n fall_delay=10n)
.ends
*
*
***********************
*SRC=5412;5412;TTL;54xx;3 input NAND gate
*SYM=NAND3
*5412 TRIPLE 3-INPUT POSITIVE-NAND GATES
*WITH OPEN COLLECTOR OUTPUTS
***
.subckt 5412 in1 in2 in3 out
*FAMILY TTLin TTLin TTLin TTLout
*pinout N 1 2 13 12;3 4 5 6;9 10 11 8:VCC=14 GND=7
*pinout J 1 2 13 12;3 4 5 6;9 10 11 8:VCC=14 GND=7
*pinout W 1 2 13 12;3 4 5 6;9 10 11 8:VCC=14 GND=7
anand [in1 in2 in3] outi ls_nand
aopenc outi out ls_openc

.model ls_openc d_open_c(open_delay=1p fall_delay=1p) 
.model ls_nand d_nand(rise_delay=35n fall_delay=8n)
.ends
*
*
**********************
*SRC=5413;5413;TTL;54xx;NAND Schmitt trigger
*SYM=T7413
*5413 DUAL 4-INPUT POSITIVE-NAND SCHMITT TRIGGERS
*CAUTION: Inputs are analog while output is digital
***
.subckt 5413 in1 in2 in3 in4 out
*FAMILY TTLin TTLin TTLin TTLin TTLout
*pinout N 1 2 4 5 6; 9 10 12 13 8:VCC=14 GND=7
*pinout J 1 2 4 5 6; 9 10 12 13 8:VCC=14 GND=7
*pinout W 1 2 4 5 6; 9 10 12 13 8:VCC=14 GND=7
anand [a b c d] out ls_nand
aadc  [in1 in2 in3 in4] [a b c d] ls_adc

.model ls_nand d_nand(rise_delay=18n fall_delay=15n)
.model ls_adc adc_bridge(in_low=1.7 in_high=0.9)
.ends
*
*
**********************
*SRC=5414;5414;TTL;54xx;inverter Schmitt
*SYM=INV
*5414 HEX SCHMITT-TRIGGER INVERTERS
*CAUTION: input is analog while output is digital
***
.subckt 5414 in out
*FAMILY ANALOG TTLout
*pinout N 1 2;3 4;5 6;9 8;11 10;13 12:VCC=14 GND=7
*pinout J 1 2;3 4;5 6;9 8;11 10;13 12:VCC=14 GND=7
*pinout W 1 2;3 4;5 6;9 8;11 10;13 12:VCC=14 GND=7
ainv a out ls_inv
aadc  [in] [a] ls_adc

.model ls_inv d_inverter(rise_delay=15n fall_delay=15n)
.model ls_adc adc_bridge(in_low=1.7 in_high=0.9)
.ends
*
*
**********************
*SRC=5416;5416;TTL;54xx;inverter buffer
*SYM=INV
*5416 HEX INVERTER BUFFERS/DRIVERS
*WITH OPEN COLLECTOR HIGH-VOLTAGE OUTPUTS
***
.subckt 5416 in out
*FAMILY TTLin TTLout
*pinout N 1 2;3 4;5 6;9 8;11 10;13 12:VCC=14 GND=7
*pinout J 1 2;3 4;5 6;9 8;11 10;13 12:VCC=14 GND=7
*pinout W 1 2;3 4;5 6;9 8;11 10;13 12:VCC=14 GND=7
ainv in outi ls_inv 
aopenc outi out ls_openc

.model ls_openc d_open_c(open_delay=5p fall_delay=5p)
.model ls_inv d_inverter(rise_delay=10n fall_delay=15n)
.ends
*
*
**********************
*SRC=5417;5417;TTL;54xx;buffer/driver
*SYM=BUF
*5417 HEX BUFFERS/DRIVERS
*WITH OPEN COLLECTOR HIGH-VOLTAGE OUTPUTS
***
.subckt 5417 in out
*FAMILY TTLin TTLout
*pinout N 1 2;3 4;5 6;9 8;11 10;13 12:VCC=14 GND=7
*pinout J 1 2;3 4;5 6;9 8;11 10;13 12:VCC=14 GND=7
*pinout W 1 2;3 4;5 6;9 8;11 10;13 12:VCC=14 GND=7
abuf in outi ls_buf 
aopenc outi out ls_openc

.model ls_openc d_open_c(open_delay=1p fall_delay=1p)
.model ls_buf d_buffer(rise_delay=6n fall_delay=20n)
.ends
*
*
**********************
*SRC=5422;5422;TTL;54xx;4 input NAND gate
*SYM=NAND4
*5422 DUAL 4-INPUT POSITIVE-NAND GATES
*WITH OPEN-COLLECTOR OUTPUTS
***
.subckt 5422 in1 in2 in3 in4 out
*FAMILY TTLin TTLin TTLin TTLin TTLout
*pinout N 1 2 4 5 6;9 10 12 13 8:VCC=14 GND=7
*pinout J 1 2 4 5 6;9 10 12 13 8:VCC=14 GND=7
*pinout W 1 12 13 14 2;6 7 8 9 10:VCC=4 GND=11
anand [in1 in2 in3 in4] outi ls_nand
aopenc outi out ls_openc

.model ls_openc d_open_c(open_delay=1p fall_delay=1p)
.model ls_nand d_nand(rise_delay=35n fall_delay=8n)
.ends
*
*
**********************
*SRC=5423;5423;TTL;54xx;4 input NOR gate
*SYM=T7423
*5423 DUAL 4-INPUT POSITIVE-NOR GATES WITH STROBE
***
.subckt 5423 1a 1b 1c 1d 1g x 
+ xb 1y 2a 2b 2c 2d 2g 2y
*FAMILY TTLin TTLin TTLin TTLin TTLin TTLin TTLin
+ TTLout TTLin TTLin TTLin TTLin TTLin TTLout
*pinout N 2 3 5 6 4 1 15 7 10 11 13 14 12 9:VCC=16 GND=8
*pinout J 2 3 5 6 4 1 15 7 10 11 13 14 12 9:VCC=16 GND=8
*pinout W 2 3 5 6 4 1 15 7 10 11 13 14 12 9:VCC=16 GND=8

ainv1 xb xbc inv
aand1 [1a 1g] a1 and
aand2 [1b 1g] b1 and
aand3 [1c 1g] c1 and
aand4 [1d 1g] d1 and
aand5 [x xbc] x1 and
aor1 [a1 b1 c1 d1 x1] 1y ls_or

aand6 [2a 2g] a2 and
aand7 [2b 2g] b2 and
aand8 [2c 2g] c2 and
aand9 [2d 2g] d2 and
aor2 [a2 b2 c2 d2] 2y ls_or

.model inv d_inverter
.model and d_and
.model ls_or d_or(rise_delay=13n fall_delay=8n)
.ends
*
*
**********************
*SRC=5425;5425;TTL;54xx;4 input NOR gate
*SYM=T7425
*5425 DUAL 4-INPUT POSITIVE-NOR GATES WITH STROBE
***
.subckt 5425 in1 in2 in3 in4 strobe out
*FAMILY TTLin TTLin TTLin TTLin TTLin TTLout
*pinout N 1 2 4 5 3 6;9 10 12 13 11 8:VCC=14 GND=7
*pinout J 1 2 4 5 3 6;9 10 12 13 11 8:VCC=14 GND=7
anor [in1 in2 in3 in4] outi ls_nor
anand [outi strobe] out ls_nand
.model ls_nor d_nor(rise_delay=10n fall_delay=10n)
.model ls_nand d_nand
.ends
*
*
**********************
*SRC=5428;5428;TTL;54xx;2 input NOR gate
*SYM=NOR2
*5428 QUADRUPLE 2-INPUT POSITIVE-NOR BUFFERS
***
.subckt 5428 in1 in2 out
*FAMILY TTLin TTLin TTLout
*pinout N 2 3 1;5 6 4;8 9 10;11 12 13:VCC=14 GND=7
*pinout J 2 3 1;5 6 4;8 9 10;11 12 13:VCC=14 GND=7
*pinout W 2 3 1;5 6 4;8 9 10;11 12 13:VCC=14 GND=7
anor [in1 in2] outi ls_nor
abuf outi out ls_buf
.model ls_nor d_nor
.model ls_buf d_buffer(rise_delay=6n fall_delay=8n)
.ends
*
*
**********************
*SRC=5430;5430;TTL;54xx;8 input NAND gate
*SYM=T7430
*5430 8-INPUT POSITIVE-NAND GATES
***
.subckt 5430 in1 in2 in3 in4 in5 in6 in7 in8 out
*FAMILY TTLin TTLin TTLin TTLin TTLin TTLin TTLin TTLin TTLout
*pinout N 1 2 3 4 5 6 11 12 8:VCC=14 GND=7
*pinout J 1 2 3 4 5 6 11 12 8:VCC=14 GND=7
*pinout W 2 3 5 6 7 8 9 10 12:VCC=4 GND=11
anand [in1 in2 in3 in4
+	in5 in6 in7 in8] out ls_nand 
.model ls_nand d_nand(rise_delay=13n fall_delay=8n)
.ends
*
*
**********************
*SRC=5432;5432;TTL;54xx;2 input OR gate
*SYM=OR2
*5432 QUADRUPLE 2-INPUT POSITIVE-OR GATES
***
.subckt 5432 in1 in2 out
*FAMILY TTLin TTLin TTLout
*pinout N 1 2 3;4 5 6;9 10 8;12 13 11:VCC=14 GND=7
*pinout J 1 2 3;4 5 6;9 10 8;12 13 11:VCC=14 GND=7
*pinout W 1 2 3;4 5 6;9 10 8;12 13 11:VCC=14 GND=7
aor [in1 in2] out ls_or 
.model ls_or d_or(rise_delay=10n fall_delay=14n)
.ends
*
*
**********************
*SRC=5437;5437;TTL;54xx;2 input NAND gate
*SYM=NAND2
*5437 QUADRUPLE 2-INPUT POSITIVE-NAND BUFFERS
***
.subckt 5437 in1 in2 out
*FAMILY TTLin TTLin TTLout
*pinout N 1 2 3;4 5 6;9 10 8;12 13 11:VCC=14 GND=7
*pinout J 1 2 3;4 5 6;9 10 8;12 13 11:VCC=14 GND=7
*pinout W 1 2 3;4 5 6;9 10 8;12 13 11:VCC=14 GND=7
anor [in1 in2] outi ls_nand 
abuf outi out ls_buf
.model ls_nand d_nand
.model ls_buf d_buffer(rise_delay=13n fall_delay=8n)
.ends
*
*
**********************
*SRC=5438;5438;TTL;54xx;2 input NAND gate
*SYM=NAND2
*5438 QUADRUPLE 2-INPUT POSITIVE-NAND BUFFERS
*WITH OPEN-COLLECTOR OUTPUTS
***
.subckt 5438 in1 in2 out
*FAMILY TTLin TTLin TTLout
*pinout N 1 2 3;4 5 6;9 10 8;12 13 11:VCC=14 GND=7
*pinout J 1 2 3;4 5 6;9 10 8;12 13 11:VCC=14 GND=7
*pinout W 1 2 3;4 5 6;9 10 8;12 13 11:VCC=14 GND=7
anand [in1 in2] outi ls_nand 
abuf outi outj ls_buf
aopenc outj out ls_openc

.model ls_openc d_open_c
.model ls_nand d_nand
.model ls_buf d_buffer(rise_delay=14n fall_delay=11n)
.ends
*
*
**********************
*SRC=5439;5439;TTL;54xx;2 input NAND
*SYM=NAND2
*5439 QUADRUPLE 2-INPUT POSITIVE-NAND BUFFERS
*WITH OPEN-COLLECTOR OUTPUTS
***
.subckt 5439 in1 in2 out
*FAMILY TTLin TTLin TTLout
*pinout N 2 3 1;5 6 4;8 9 10;11 12 13:VCC=14 GND=7
*pinout J 2 3 1;5 6 4;8 9 10;11 12 13:VCC=14 GND=7
anand [in1 in2] outi ls_nand 
abuf outi outj ls_buf
aopenc outj out ls_openc

.model ls_openc d_open_c
.model ls_nand d_nand
.model ls_buf d_buffer(rise_delay=18n fall_delay=22n)
.ends
*
*
**********************
*SRC=5440;5440;TTL;54xx;4 input NAND gate
*SYM=NAND4
*5440 DUAL 4-INPUT POSITIVE-NAND BUFFERS
***
.subckt 5440 in1 in2 in3 in4 out
*FAMILY TTLin TTLin TTLin TTLin TTLout
*pinout N 1 2 4 5 6;9 10 12 13 8:VCC=14 GND=7
*pinout J 1 2 4 5 6;9 10 12 13 8:VCC=14 GND=7
*pinout W 1 12 13 14 2;6 7 8 9 10:VCC=4 GND=11
anand [in1 in2 in3 in4] outi ls_nand
abuf outi out ls_buf
.model ls_nand d_nand
.model ls_buf d_buffer(rise_delay=13n fall_delay=8n)
.ends
*
*
**********************
*SRC=5443A;5443A;TTL;54xx;Excess3/Decimal
*SYM=T7443A
*5443A DECODER EXCESS-3-DECIMAL 4-10 LINE
***
.subckt 5443A a b c d y0 y1 y2 y3 y4 y5 y6 y7 y8 y9
*FAMILY TTLin TTLin TTLin TTLin TTLout TTLout TTLout TTLout TTLout TTLout TTLout TTLout TTLout TTLout
*pinout N 15 14 13 12 1 2 3 4 5 6 7 9 10 11:VCC=16 GND=8
*pinout J 15 14 13 12 1 2 3 4 5 6 7 9 10 11:VCC=16 GND=8
*pinout W 15 14 13 12 1 2 3 4 5 6 7 9 10 11:VCC=16 GND=8
ainv1 a ab inv
ainv1 a ab inv
ainv2 b bb inv
ainv3 c cb inv
ainv4 d db inv

anand0 [db cb b a] y0 ls_nand
anand1 [db c bb ab] y1 ls_nand
anand2 [db c bb a] y2 ls_nand
anand3 [db c b ab] y3 ls_nand
anand4 [db c b a] y4 ls_nand
anand5 [d cb bb ab] y5 ls_nand
anand6 [d cb bb a] y6 ls_nand
anand7 [d cb b ab] y7 ls_nand
anand8 [d cb b a] y8 ls_nand
anand9 [d c bb ab] y9 ls_nand

.model inv d_inverter
.model ls_nand d_nand(rise_delay=15n fall_delay=20n)
.ends
*
*
**********************
*SRC=5444A;5444A;TTL;54xx;Gray/Decimal
*SYM=T7444A
*5444A DECODER GRAY-DECIMAL 4-10 LINE
***
.subckt 5444A a b c d y0 y1 y2 y3 y4 y5 y6 y7 y8 y9
*FAMILY TTLin TTLin TTLin TTLin TTLout TTLout TTLout TTLout TTLout TTLout TTLout TTLout TTLout TTLout
*pinout N 15 14 13 12 1 2 3 4 5 6 7 9 10 11:VCC=16 GND=8
*pinout J 15 14 13 12 1 2 3 4 5 6 7 9 10 11:VCC=16 GND=8
*pinout W 15 14 13 12 1 2 3 4 5 6 7 9 10 11:VCC=16 GND=8
ainv1 a ab inv
ainv2 b bb inv
ainv3 c cb inv
ainv4 d db inv

anand0 [db cb b ab] y0 ls_nand
anand1 [db c b ab] y1 ls_nand
anand2 [db c b a] y2 ls_nand
anand3 [db c bb a] y3 ls_nand
anand4 [db c bb ab] y4 ls_nand
anand5 [d c bb ab] y5 ls_nand
anand6 [d c bb a] y6 ls_nand
anand7 [d c b a] y7 ls_nand
anand8 [d c b ab] y8 ls_nand
anand9 [d cb b ab] y9 ls_nand

.model inv d_inverter
.model ls_nand d_nand(rise_delay=15n fall_delay=20n)
.ends
*
*
**********************
*SRC=5445;5445;TTL;54xx;BCD/Decimal
*SYM=T7445
*5445 DECODER/DRIVER BCD-DECIMAL 
*WITH OPEN-COLLECTOR OUTPUTS
***
.subckt 5445 a b c d y0 y1 y2 y3 y4 y5 y6 y7 y8 y9
*FAMILY TTLin TTLin TTLin TTLin TTLout TTLout TTLout TTLout TTLout TTLout TTLout TTLout TTLout TTLout
*pinout N 15 14 13 12 1 2 3 4 5 6 7 9 10 11:VCC=16 GND=8
*pinout J 15 14 13 12 1 2 3 4 5 6 7 9 10 11:VCC=16 GND=8
*pinout W 15 14 13 12 1 2 3 4 5 6 7 9 10 11:VCC=16 GND=8
ainv1 a ab inv
ainv2 b bb inv
ainv3 c cb inv
ainv4 d db inv

anand0 [db cb bb ab] s0 ls_nand
anand1 [db cb bb a] s1 ls_nand
anand2 [db cb b ab] s2 ls_nand
anand3 [db cb b a] s3 ls_nand
anand4 [db c bb ab] s4 ls_nand
anand5 [db c bb a] s5 ls_nand
anand6 [db c b ab] s6 ls_nand
anand7 [db c b a] s7 ls_nand
anand8 [d cb bb ab] s8 ls_nand
anand9 [d cb bb a] s9 ls_nand

aoc0 s0 y0 openc
aoc1 s1 y1 openc
aoc2 s2 y2 openc
aoc3 s3 y3 openc
aoc4 s4 y4 openc
aoc5 s5 y5 openc
aoc6 s6 y6 openc
aoc7 s7 y7 openc
aoc8 s8 y8 openc
aoc9 s9 y9 openc

.model openc d_open_c
.model inv d_inverter
.model ls_nand d_nand(rise_delay=25n fall_delay=25n)
.ends
*
*
**********************
*SRC=5446A;5446A;TTL;54xx;BCD/7-segment
*SYM=T7446A
*5446A DECODER/DRIVER BCD-7 SEGMENT WITH
*OPEN-COLLECTOR OUTPUTS
***

.subckt 5446A ina inb inc ind rbib ltb
+ bib/rbob a b c d e f g

*FAMILY TTLin TTLin TTLin TTLin TTLin TTLin TTLin TTLout 
+ TTLout TTLout TTLout TTLout TTLout TTLout
*pinout N 7 1 2 6 5 3 4 9 10 11 12 13 14 15:VCC=16 GND=8
*pinout J 7 1 2 6 5 3 4 9 10 11 12 13 14 15:VCC=16 GND=8
*pinout W 7 1 2 6 5 3 4 9 10 11 12 13 14 15:VCC=16 GND=8

ainv1 rbib rbi inv
 
ananda1 [ina ltb] a1 nand
anandb1 [inb ltb] b1 nand
anandc1 [inc ltb] c1 nand
anandd1 [ind ind] d1 nand

ananda2 [a1 bib/rbob] a2 nand 
anandb2 [b1 bib/rbob] b2 nand 
anandc2 [c1 bib/rbob] c2 nand 
anandd2 [d1 bib/rbob] d2 nand 

anand6 [ltb rbi d1 c1 b1 a1] bib/rbob nand

aand1a [b2 d2] x1 and
aand2a [a1 b1 c2] x2 and
aand3a [a2 b1 c1 d1] x3 and
aor1 [x1 x2 x3] ai or 

aand1b [b2 d2] x4 and
aand2b [a2 b1 c2] x5 and
aand3b [a1 b2 c2] x6 and
aor2 [x4 x5 x6] bi or 

aand1c [c2 d2] x7 and
aand2c [a1 b2 c1] x8 and
aor3 [x7 x8] ci or 

aand1d [a2 b1 c1 d1] x9 and
aand2d [a1 b1 c2] xa and
aand3d [a2 b2 c2] xb and
aor4 [x9 xa xb] di or 

aand1e [b1 c2] xc and
aor5 [xc a2] ei or 

aand1f [a2 b2] xd and
aand2f [b2 c1] xe and
aand3f [a2 c1 d1] xf and
aor6 [xd xe xf] fi or 

aand1g [a2 b2 c2] xg and
aand2g [b1 c1 d1 ltb] xh and
aor7 [xg xh] gi or 

aop1 ai a open
aop2 bi b open
aop3 ci c open
aop4 di d open
aop5 ei e open
aop6 fi f open
aop7 gi g open

.model inv d_inverter
.model nand d_nand
.model and d_and
.model or d_or(rise_delay=50n fall_delay=50n)
.model open d_open_c

.ends
*
*
**********************
*SRC=5448;5448;TTL;54xx;BCD/7-segment
*SYM=T7448
*5448 DECODER/DRIVER BCD-7 SEGMENT WITH
*INTERNAL PULLUPS
***

.subckt 5448 ina inb inc ind rbib ltb
+ bib/rbob a b c d e f g

*FAMILY TTLin TTLin TTLin TTLin TTLin TTLin TTLin TTLout 
+ TTLout TTLout TTLout TTLout TTLout TTLout
*pinout N 7 1 2 6 5 3 4 9 10 11 12 13 14 15:VCC=16 GND=8
*pinout J 7 1 2 6 5 3 4 9 10 11 12 13 14 15:VCC=16 GND=8
*pinout W 7 1 2 6 5 3 4 9 10 11 12 13 14 15:VCC=16 GND=8

ainv1 rbib rbi inv
 
ananda1 [ina ltb] a1 nand
anandb1 [inb ltb] b1 nand
anandc1 [inc ltb] c1 nand
anandd1 [ind ind] d1 nand

ananda2 [a1 bib/rbob] a2 nand 
anandb2 [b1 bib/rbob] b2 nand 
anandc2 [c1 bib/rbob] c2 nand 
anandd2 [d1 bib/rbob] d2 nand 

anand6 [ltb rbi d1 c1 b1 a1] bib/rbob nand

aand1a [b2 d2] x1 and
aand2a [a1 b1 c2] x2 and
aand3a [a2 b1 c1 d1] x3 and
aor1 [x1 x2 x3] ai or 

aand1b [b2 d2] x4 and
aand2b [a2 b1 c2] x5 and
aand3b [a1 b2 c2] x6 and
aor2 [x4 x5 x6] bi or 

aand1c [c2 d2] x7 and
aand2c [a1 b2 c1] x8 and
aor3 [x7 x8] ci or 

aand1d [a2 b1 c1 d1] x9 and
aand2d [a1 b1 c2] xa and
aand3d [a2 b2 c2] xb and
aor4 [x9 xa xb] di or 

aand1e [b1 c2] xc and
aor5 [xc a2] ei or 

aand1f [a2 b2] xd and
aand2f [b2 c1] xe and
aand3f [a2 c1 d1] xf and
aor6 [xd xe xf] fi or 

aand1g [a2 b2 c2] xg and
aand2g [b1 c1 d1 ltb] xh and
aor7 [xg xh] gi or 

ah h high

aand1 [ai h] a and
aand2 [bi h] b and
aand3 [ci h] c and
aand4 [di h] d and
aand5 [ei h] e and
aand6 [fi h] f and
aand7 [gi h] g and


.model high d_pullup
.model inv d_inverter
.model nand d_nand
.model and d_and
.model or d_or(rise_delay=50n fall_delay=50n)

.ends
*
*
**********************
*SRC=5449;5449;TTL;54xx;BCD/7-segment
*SYM=T7449
*5449 DECODER/DRIVER BCD-7 SEGMENT WITH
*OPEN-COLLECTOR OUTPUTS
***
.subckt 5449 ina inb inc ind rbib
+  a b c d e f g

*FAMILY TTLin TTLin TTLin TTLin TTLin
+ TTLout TTLout TTLout TTLout TTLout TTLout TTLout
*pinout J 5 1 2 4 3 11 10 9 8 6 13 12:VCC=14 GND=7
*pinout W 5 1 2 4 3 11 10 9 8 6 13 12:VCC=14 GND=7

ainv1 rbib rbi inv

ah ltb high
.model high d_pullup

ananda1 [ina ltb] a1 nand
anandb1 [inb ltb] b1 nand
anandc1 [inc ltb] c1 nand
anandd1 [ind ind] d1 nand

ananda2 [a1 bib/rbob] a2 nand 
anandb2 [b1 bib/rbob] b2 nand 
anandc2 [c1 bib/rbob] c2 nand 
anandd2 [d1 bib/rbob] d2 nand 

anand6 [ltb rbi d1 c1 b1 a1] bib/rbob nand

aand1a [b2 d2] x1 and
aand2a [a1 b1 c2] x2 and
aand3a [a2 b1 c1 d1] x3 and
aor1 [x1 x2 x3] ai or 

aand1b [b2 d2] x4 and
aand2b [a2 b1 c2] x5 and
aand3b [a1 b2 c2] x6 and
aor2 [x4 x5 x6] bi or 

aand1c [c2 d2] x7 and
aand2c [a1 b2 c1] x8 and
aor3 [x7 x8] ci or 

aand1d [a2 b1 c1 d1] x9 and
aand2d [a1 b1 c2] xa and
aand3d [a2 b2 c2] xb and
aor4 [x9 xa xb] di or 

aand1e [b1 c2] xc and
aor5 [xc a2] ei or 

aand1f [a2 b2] xd and
aand2f [b2 c1] xe and
aand3f [a2 c1 d1] xf and
aor6 [xd xe xf] fi or 

aand1g [a2 b2 c2] xg and
aand2g [b1 c1 d1 ltb] xh and
aor7 [xg xh] gi or 

aop1 ai a open
aop2 bi b open
aop3 ci c open
aop4 di d open
aop5 ei e open
aop6 fi f open
aop7 gi g open

.model inv d_inverter
.model nand d_nand
.model and d_and
.model or d_or(rise_delay=50n fall_delay=50n)
.model open d_open_c

.ends
*
***********************
*SRC=5450;5450;TTL;54xx;AND-OR-INVERT gate
*SYM=T7450
*5450 DUAL 2-WIDE 2-INPUT AND-OR-INVERT GATES 
***
.subckt 5450 1a 1b 1c 1d x xb 1y
+ 2a 2b 2c 2d 2y
*FAMILY TTLin TTLin TTLin TTLin TTLin TTLin TTLout
+ TTLin TTLin TTLin TTLin TTLout
*pinout N 1 13 9 10 11 12 8 2 3 4 5 6:VCC=14 GND=7
*pinout J 1 13 9 10 11 12 8 2 3 4 5 6:VCC=14 GND=7
*pinout W 3 5 13 14 1 2 12 6 7 8 9 10:VCC=4 GND=11

ainv xb xbi inv
aanda1 [1a 1b] a1 and
aandb1 [1c 1d] b1 and
aandc1 [x xbi] c1 and
anor1 [a1 b1 c1] 1y ls_nor

aanda2 [2a 2b] a2 and
aandb2 [2c 2d] b2 and
anor2 [a2 b2] 2y ls_nor

.model inv d_inverter
.model and d_and
.model ls_nor d_nor(rise_delay=13n fall_delay=8n)

.ends
*
*
**********************
*SRC=5453;5453;TTL;54xx;AND-OR-INVERT gate
*SYM=T7453
*5453 EXPANDABLE 4-WIDE AND-OR-INVERT GATES 
***
.subckt 5453 a b c d e f g h x xb y
*FAMILY TTLin TTLin TTLin TTLin TTLin TTLin TTLin TTLin TTLin TTLin TTLout
*pinout N 1 13 2 3 4 5 9 10 11 12 8:VCC=14 GND=7
*pinout J 1 13 2 3 4 5 9 10 11 12 8:VCC=14 GND=7
*pinout W 3 5 6 7 8 9 13 14 1 2 12:VCC=4 GND=11
ainv xb xbc inv
aand1 [a b] x1 ls_and
aand2 [c d] x2 ls_and
aand3 [e f] x3 ls_and
aand4 [g h] x4 ls_and
aand5 [x xbc] x5 ls_and

anor [x1 x2 x3 x4 x5] y ls_nor

.model inv d_inverter
.model ls_and d_and
.model ls_nor d_nor(rise_delay=13n fall_delay=8n)
.ends
*
*
**********************
*SRC=5460;5460;TTL;54xx;4 input expander
*SYM=T7460
*5460 DUAL 4-INPUT EXPANDERS 
***
.subckt 5460 a b c d x xbar
*FAMILY TTLin TTLin TTLin TTLin TTLout TTLout
*pinout N 1 2 3 13 11 12;4 5 6 8 10 9:VCC=14 GND=7
*pinout J 1 2 3 13 11 12;4 5 6 8 10 9:VCC=14 GND=7
*pinout W 3 5 6 7 1 2;8 9 10 12 14 13:VCC=4 GND=11

aand [a b c d] x ls_and
ainv x xbar ls_inv
.model ls_and d_and(rise_delay=10n fall_delay=10n)
.model ls_inv d_inverter(rise_delay=1n fall_delay=1n)
.ends
*
*
**********************
*SRC=5470;5470;TTL;54xx;J-K Flip-Flop
*SYM=T7470
*5470 AND-GATED J-K POSITIVE-EDGE-TRIGGERED
*FLIP-FLOPS WITH PRESET & CLEAR 
***
.subckt 5470 clk prebar clrbar j1 j2 jbar
+ k1 k2 kbar q qbar
*FAMILY  TTLin TTLin TTLin TTLin  TTLin TTLin TTLin TTLin TTLin TTLout TTLout
*pinout N 12 13 2 3 4 5 10 11 9 8 6:VCC=14 GND=7
*pinout J 12 13 2 3 4 5 10 11 9 8 6:VCC=14 GND=7
*pinout W 2 3 5 7 8 9 1 14 13 12 10:VCC=4 GND=11

ainv1 jbar j3 inv
ainv2 kbar k3 inv
ainv3 clrbar clr inv
ainv4 prebar pre inv

aand1 [j1 j2 j3] j and
aand2 [k1 k2 k3] k and
ajkff j k clk pre clr q qbar ls_jkff

.model and d_and
.model inv d_inverter
.model ls_jkff d_jkff(clk_delay=28n set_delay=23n
+ reset_delay=4n rise_delay=9n)
.ends
*
*
**********************
*SRC=5472;5472;TTL;54xx;J-K Flip-Flop
*SYM=T7472
*5472 AND-GATED J-K MASTER-SLAVE
*FLIP-FLOPS WITH PRESET & CLEAR 
***
.subckt 5472 prebar clrbar clk j1 j2 j3
+ k1 k2 k3 q qbar
*FAMILY  TTLin TTLin TTLin TTLin  TTLin TTLin TTLin TTLin TTLin TTLout TTLout 
*pinout N 13 2 12 3 4 5 9 10 11 8 6:VCC=14 GND=7
*pinout J 13 2 12 3 4 5 9 10 11 8 6:VCC=14 GND=7
*pinout W 3 5 2 7 8 9 1 13 14 12 10:VCC=4 GND=11
ainv1 clrbar clr inv
ainv2 prebar pre inv

aand1 [j1 j2 j3] j and
aand2 [k1 k2 k3] k and
ajkff j k clk pre clr q qbar ls_jkff

.model and d_and
.model inv d_inverter
.model ls_jkff d_jkff(clk_delay=10n set_delay=20n
+ reset_delay=20n rise_delay=6n fall_delay=6n)

.ends
*
*
**********************
*SRC=5473;5473;TTL;54xx;J-K Flip-Flop
*SYM=T7473
*5473 DUAL J-K FLIP-FLOPS WITH CLEAR 
***
.subckt 5473 clk clrbar j k q qbar
*FAMILY  TTLin TTLin TTLin TTLin TTLout TTLout
*pinout N 1 2 14 3 12 13;5 6 7 10 9 8:VCC=4 GND=11
*pinout J 1 2 14 3 12 13;5 6 7 10 9 8:VCC=4 GND=11
*pinout W 1 2 14 3 12 13;5 6 7 10 9 8:VCC=4 GND=11
aone pre ls_pldwn
ainv clrbar clr ls_inv
ajk j k clk pre clr q qbar ls_jkff
.model ls_pldwn d_pulldown
.model ls_jkff d_jkff(clk_delay=1p rise_delay=10n 
+ fall_delay=19n)
.model ls_inv d_inverter
.ends
*
*
**********************
*SRC=5474;5474;TTL;54xx;D Flip-Flop
*SYM=T7474
*5474 DUAL D-TYPE POSITIVE-EDGE-TRIGGERED 
*FLIP-FLOPS WITH PRESET & CLEAR 
***
.subckt 5474 clrbar d clk prebar q qbar
*FAMILY  TTLin TTLin TTLin TTLin TTLout TTLout
*pinout N 1 2 3 4 5 6;13 12 11 10 9 8:VCC=14 GND=7
*pinout J 1 2 3 4 5 6;13 12 11 10 9 8:VCC=14 GND=7
*pinout W 3 2 1 14 13 12;5 6 7 8 9 10:VCC=4 GND=11
adff d clk prebar clrbar q qbar ls_dff

.model ls_dff d_dff(clk_delay=1p rise_delay=14n 
+ fall_delay=20n ic=1)
.ends
*
*
**********************
*SRC=5476;5476;TTL;54xx;J-K Flip-Flop
*SYM=T7476
*5476 DUAL J-K FLIP-FLOPS WITH PRESET & CLEAR 
***
.subckt 5476 clk prebar clrbar j k q qbar
*FAMILY  TTLin TTLin TTLin TTLin TTLin TTLout TTLout
*pinout N 1 2 3 4 16 15 14;6 7 8 9 12 11 10:VCC=5 GND=13
*pinout J 1 2 3 4 16 15 14;6 7 8 9 12 11 10:VCC=5 GND=13
*pinout W 1 2 3 4 16 15 14;6 7 8 9 12 11 10:VCC=5 GND=13
ainv1 prebar pre ls_inv
ainv2 clrbar clr ls_inv
ainv3 clk clkbar ls_inv
ajk j k clkbar pre clr q qbar ls_jkff

.model ls_jkff d_jkff(clk_delay=1p rise_delay=16n 
+ fall_delay=25n)
.model ls_inv d_inverter
.ends
*
*
**********************
*SRC=5477;5477;TTL;54xx;4-bit bistable latch
*SYM=T7477
*5477 4-BIT BISTABLE LATCHES
*The IC contains actually 2 2-bit latches
***
.subckt 5477 1d 2d c 1q 2q
*FAMILY  TTLin TTLin TTLin TTLout TTLout
*pinout W 1 2 12 14 13;5 6 3 9 8:VCC=4 GND=11
adl1  1d c sr sr 1q 1qbar ls_dlatch
adl2  2d c sr sr 2q 2qbar ls_dlatch

azero1 sr pldwn

.model ls_dlatch d_dlatch(data_delay=14n 
+ enable_delay=7n
+ rise_delay=2n)
.model pldwn d_pulldown
.ends
*
*
**********************
*SRC=5482;5482;TTL;54xx;2-bit full adder
*SYM=T7482
*5482 2-BIT BINARY FULL ADDERS 
***
.subckt 5482 c0 a1 a2 b1 b2 sum1 sum2 c2
FAMILY  TTLin TTLin TTLin TTLin TTLin TTLout TTLout TTLout
*pinout N 5 2 14 3 13 1 12 10:VCC=4 GND=11
*pinout J 5 2 14 3 13 1 12 10:VCC=4 GND=11
*pinout W 5 2 14 3 13 1 12 10:VCC=4 GND=11

abuf1 a1 ia1 ls_buf1
abuf2 a2 ia2 ls_buf1
abuf3 b1 ib1 ls_buf1
abuf4 b2 ib2 ls_buf1
abuf5 c0 ic0 ls_buf2

x1 ia1 ib1 ic0 sum1 c1 add1
x2 ia2 ib2 c1 sum2 c2 add1

.subckt add1 a b ci s co
axor1 [a b] x1 xor
axor2 [x1 ci] s xor
aand1 [a b] x2 and
aand2 [ci x1] x3 and
aor [x2 x3] co or
.model xor d_xor
.model and d_and
.model or d_or
.ends add1

.model ls_buf1 d_buffer(rise_delay=20n fall_delay=20n)
.model ls_buf2 d_buffer(rise_delay=20n fall_delay=20n)

.ends
*
*
**********************
*SRC=5483A;5483A;TTL;54xx;4-bit full adder
*SYM=T7483A
*5483A 4-BIT BINARY FULL ADDERS WITH FAST CARRY 
***
.subckt 5483A c0 a1 a2 a3 a4 b1 b2 b3 b4 c4
+ 	sum1 sum2 sum3 sum4
*FAMILY  TTLin TTLin TTLin TTLin TTLin TTLin TTLin TTLin TTLin TTLout  
+ TTLout TTLout TTLout TTLout
*pinout N 13 10 8 3 1 11 7 4 16 14 9 6 2 15:VCC=5 GND=12
*pinout J 13 10 8 3 1 11 7 4 16 14 9 6 2 15:VCC=5 GND=12
*pinout W 13 10 8 3 1 11 7 4 16 14 9 6 2 15:VCC=5 GND=12
abuf1 a1 ia1 ls_buf1
abuf2 a2 ia2 ls_buf1
abuf3 a3 ia3 ls_buf1
abuf4 a4 ia4 ls_buf1
abuf5 b1 ib1 ls_buf1
abuf6 b2 ib2 ls_buf1
abuf7 b3 ib3 ls_buf1
abuf8 b4 ib4 ls_buf1
abuf9 c0 ic0 ls_buf2

x1 ia1 ib1 ic0 sum1 c1 add1
x2 ia2 ib2 c1 sum2 c2 add1
x3 ia3 ib3 c2 sum3 c3 add1
x4 ia4 ib4 c3 sum4 c4 add1


.subckt add1 a b ci s co
axor1 [a b] x1 xor
axor2 [x1 ci] s xor
aand1 [a b] x2 and
aand2 [ci x1] x3 and
aor [x2 x3] co or
.model xor d_xor
.model and d_and
.model or d_or
.ends add1

.model ls_buf1 d_buffer(rise_delay=14n fall_delay=14n)
.model ls_buf2 d_buffer(rise_delay=9n fall_delay=9n)

.ends
*
*
**********************
*SRC=5486;5486;TTL;54xx;2 input XOR
*SYM=XOR
*5486 QUADRUPLE 2-INPUT EXCLUSIVE-OR GATES
***
.subckt 5486 in1 in2 out
*FAMILY TTLin TTLin TTLout
*pinout N 1 2 3;4 5 6;9 10 8;12 13 11:VCC=14 GND=7
*pinout J 1 2 3;4 5 6;9 10 8;12 13 11:VCC=14 GND=7
*pinout W 1 2 3;4 5 6;9 10 8;12 13 11:VCC=14 GND=7
axor [in1 in2] out ls_xor 
.model ls_xor d_xor(rise_delay=16n fall_delay=12n)
.ends
*
*
**********************
*SRC=5494;5494;TTL;54xx;4-bit shift register
*SYM=T7494
*5494 4-BIT SHIFT REGISTERS
***
.subckt 5494 clr clk ser pe1 p1a p1b p1c p1d
+ pe2 p2a p2b p2c p2d qd
*FAMILY TTLin TTLin TTLin TTLin TTLin TTLin TTLin TTLin
+  TTLin TTLin TTLin TTLin TTLin TTLout 
*pinout N 10 8 7 6 1 2 3 4 15 16 14 13 11 9:VCC=5 GND=12 
*pinout J 10 8 7 6 1 2 3 4 15 16 14 13 11 9:VCC=5 GND=12 
*pinout W 10 8 7 6 1 2 3 4 15 16 14 13 11 9:VCC=5 GND=12
x1 pe1 p1a pe2 p2a prea andnor
x2 pe1 p1b pe2 p2b preb andnor
x3 pe1 p1c pe2 p2c prec andnor
x4 pe1 p1d pe2 p2d pred andnor
ainv1 ser serb inv
ajkff1 ser serb clk prea clr qa qab ls_jkff  
ajkff2 qa qab clk preb clr qb qbb ls_jkff 
ajkff3 qb qbb clk prec clr qc qcb  ls_jkff
ajkff4 qc qcb clk pred clr qd qdb  ls_jkff

.subckt andnor a b c d out
aand1 [a b] x1 and
aand2 [c d] x2 and
anor [x1 x2] out nor
.model and d_and
.model nor d_nor
.ends andnor

.model ls_jkff d_jkff(clk_delay=20n set_delay=20n
+ reset_delay=10n)
.model inv d_inverter
