**********
* Copyright Intusoft 1997
* All Rights Reserved
**********
*********************************************************
*    STANDARD TTL DIGITAL LIBRARY BASED ON THE TEXAS    *
*           INSTRUMENTS DATA BOOK (Volume 1)		    * 
*									  					*
*DEVELOPPED FOR INTUSOFT BY JEAN-CLAUDE MBOLI			*
*Phone:(33) 4 76 44 43 30	    Fax:(33) 4 76 44 43 52	* 
*e-mail:101736.631@compuserve.com				  		*
*									  					*
*				September 1996							*
*				  					  					*
*********************************************************
**********************
*SRC=7400;7400;TTL;74xx;2 input NAND gate
*SYM=NAND2
*7400 QUADRUPLE 2-INPUT POSITIVE-NAND GATES
***
.subckt 7400 in1 in2 out
*FAMILY TTLin TTLin TTLout
*pinout N 1 2 3;4 5 6;9 10 8;12 13 11:VCC=14 GND=7
*pinout J 1 2 3;4 5 6;9 10 8;12 13 11:VCC=14 GND=7
*pinout W 1 2 3;6 7 5;9 10 8;12 13 14:VCC=4 GND=11
anand [in1 in2] out ls_nand 
.model ls_nand d_nand(rise_delay=11n TOL=5% fall_delay=7n)
.ends
*
*
**********************
*SRC=7402;7402;TTL;74xx;2 input NOR gate
*SYM=NOR2
*7402 QUADRUPLE 2-INPUT POSITIVE-NOR GATES
***
.subckt 7402 in1 in2 out
*FAMILY TTLin TTLin TTLout
*pinout N 2 3 1;5 6 4;8 9 10;11 12 13:VCC=14 GND=7
*pinout J 2 3 1;5 6 4;8 9 10;11 12 13:VCC=14 GND=7
*pinout W 1 2 3;6 7 5;9 10 8;12 13 14:VCC=4 GND=11
anor [in1 in2] out ls_nor 
.model ls_nor d_nor(rise_delay=12n fall_delay=8n)
.ends
*
*
**********************
*SRC=7404;7404;TTL;74xx;inverter
*SYM=INV
*7404 HEX INVERTERS
***
.subckt 7404 in out
*FAMILY TTLin TTLout
*pinout N 1 2;3 4;5 6;9 8;11 10;13 12:VCC=14 GND=7
*pinout J 1 2;3 4;5 6;9 8;11 10;13 12:VCC=14 GND=7
*pinout W 1 14;3 2;5 6;7 8;9 10;13 12:VCC=4 GND=11
ainv in out ls_inv 
.model ls_inv d_inverter(rise_delay=12n fall_delay=8n)
.ends
*
*

**********************
*SRC=7405;7405;TTL;74xx;inverter
*SYM=INV
*7405 HEX INVERTERS
*WITH OPEN COLLECTOR OUTPUTS
***
.subckt 7405 in out
*FAMILY TTLin TTLout
*pinout N 1 2;3 4;5 6;9 8;11 10;13 12:VCC=14 GND=7
*pinout J 1 2;3 4;5 6;9 8;11 10;13 12:VCC=14 GND=7
*pinout W 1 14;3 2;5 6;7 8;9 10;13 12:VCC=4 GND=11
ainv in outi ls_inv
aopenc outi out ls_openc

.model ls_openc d_open_c(open_delay=1p fall_delay=1p) 
.model ls_inv d_inverter(rise_delay=40n fall_delay=8n)
.ends
*
*
**********************
*SRC=7406;7406;TTL;74xx;inverter buffer
*SYM=BUF
*7406 HEX INVERTER BUFFERS/DRIVERS
*WITH OPEN COLLECTOR HIGH VOLTAGE OUTPUTS
***
.subckt 7406 in out
*FAMILY TTLin TTLout
*pinout N 1 2;3 4;5 6;9 8;11 10;13 12:VCC=14 GND=7
*pinout J 1 2;3 4;5 6;9 8;11 10;13 12:VCC=14 GND=7
*pinout W 1 2;3 4;5 6;9 8;11 10;13 12:VCC=14 GND=7
ainv in outi ls_inv
aopenc outi out ls_openc

.model ls_openc d_open_c(open_delay=1p fall_delay=1p) 
.model ls_inv d_inverter(rise_delay=10n fall_delay=15n)
.ends
*
*
**********************
*SRC=7407;7407;TTL;74xx;buffer/driver
*SYM=BUF
*7407 HEX BUFFERS/DRIVERS
*WITH OPEN COLLECTOR HIGH-VOLTAGE OUTPUTS
***
.subckt 7407 in out
*FAMILY TTLin TTLout
*pinout N 1 2;3 4;5 6;9 8;11 10;13 12:VCC=14 GND=7
*pinout J 1 2;3 4;5 6;9 8;11 10;13 12:VCC=14 GND=7
*pinout W 1 2;3 4;5 6;9 8;11 10;13 12:VCC=14 GND=7
abuf in outi ls_buf
aopenc outi out ls_openc

.model ls_openc d_open_c(open_delay=1p fall_delay=1p)  
.model ls_buf d_buffer(rise_delay=6n fall_delay=20n)
.ends
*
*
**********************
*SRC=7408;7408;TTL;74xx;2 input AND gate
*SYM=AND2
*7408 QUADRUPLE 2-INPUT POSITIVE-AND GATES
***
.subckt 7408 in1 in2 out
*FAMILY TTLin TTLin TTLout
*pinout N 1 2 3;4 5 6;13 12 11;10 9 8:VCC=14 GND=7
*pinout J 1 2 3;4 5 6;13 12 11;10 9 8:VCC=14 GND=7
*pinout W 1 2 3;4 5 6;13 12 11;10 9 8:VCC=14 GND=7
aand [in1 in2] out ls_and 
.model ls_and d_and(rise_delay=17.5n fall_delay=12n)
.ends
*
*
**********************
*SRC=7409;7409;TTL;74xx;2 input AND gate
*SYM=AND2
*7409 QUADRUPLE 2-INPUT POSITIVE-AND GATES
*WITH OPEN COLLECTOR OUTPUTS
***
.subckt 7409 in1 in2 out
*FAMILY TTLin TTLin TTLout
*pinout N 1 2 3;4 5 6;9 10 8;12 13 11:VCC=14 GND=7
*pinout J 1 2 3;4 5 6;9 10 8;12 13 11:VCC=14 GND=7
*pinout W 1 2 3;4 5 6;9 10 8;12 13 11:VCC=14 GND=7
aand [in1 in2] outi ls_and 
aopenc outi out ls_openc
*
.model ls_openc d_open_c(open_delay=1p fall_delay=1p)  
.model ls_and d_and(rise_delay=21n fall_delay=16n)
.ends
*
*
**********************
*SRC=7410;7410;TTL;74xx;3 input NAND gate
*SYM=NAND3
*7410 TRIPLE 3-INPUT POSITIVE-NAND GATES
***
.subckt 7410 in1 in2 in3 out
*FAMILY TTLin TTLin TTLin TTLout
*pinout N 1 2 13 12;3 4 5 6;9 10 11 8:VCC=14 GND=7
*pinout J 1 2 13 12;3 4 5 6;9 10 11 8:VCC=14 GND=7
*pinout W 1 2 14 3;6 7 8 5;9 10 12 13:VCC=4 GND=11
anand [in1 in2 in3] out ls_nand 
.model ls_nand d_nand(rise_delay=11n fall_delay=7n)
.ends
*
*
**********************
*SRC=7411;7411;TTL;74xx;3 input AND gate
*SYM=AND3
*7411 TRIPLE 3-INPUT POSITIVE-AND GATES
***
.subckt 7411 in1 in2 in3 out
*FAMILY TTLin TTLin TTLin TTLout
*pinout N 1 2 13 12;3 4 5 6;9 10 11 8:VCC=14 GND=7
*pinout J 1 2 13 12;3 4 5 6;9 10 11 8:VCC=14 GND=7
*pinout W 1 2 14 3;6 7 8 5;9 10 12 13:VCC=4 GND=11
aand [in1 in2 in3] out ls_and 
.model ls_and d_and(rise_delay=8n fall_delay=10n)
.ends
*
*
***********************
*SRC=7412;7412;TTL;74xx;3 input NAND gate
*SYM=NAND3
*7412 TRIPLE 3-INPUT POSITIVE-NAND GATES
*WITH OPEN COLLECTOR OUTPUTS
***
.subckt 7412 in1 in2 in3 out
*FAMILY TTLin TTLin TTLin TTLout
*pinout N 1 2 13 12;3 4 5 6;9 10 11 8:VCC=14 GND=7
*pinout J 1 2 13 12;3 4 5 6;9 10 11 8:VCC=14 GND=7
*pinout W 1 2 13 12;3 4 5 6;9 10 11 8:VCC=14 GND=7
anand [in1 in2 in3] outi ls_nand
aopenc outi out ls_openc

.model ls_openc d_open_c(open_delay=1p fall_delay=1p) 
.model ls_nand d_nand(rise_delay=35n fall_delay=8n)
.ends
*
*
**********************
*SRC=7413;7413;TTL;74xx;NAND Schmitt trigger
*SYM=T7413
*7413 DUAL 4-INPUT POSITIVE-NAND SCHMITT TRIGGERS
*CAUTION: Inputs are analog while output is digital
***
.subckt 7413 in1 in2 in3 in4 out
*FAMILY TTLin TTLin TTLin TTLin TTLout
*pinout N 1 2 4 5 6; 9 10 12 13 8:VCC=14 GND=7
*pinout J 1 2 4 5 6; 9 10 12 13 8:VCC=14 GND=7
*pinout W 1 2 4 5 6; 9 10 12 13 8:VCC=14 GND=7
anand [a b c d] out ls_nand
aadc  [in1 in2 in3 in4] [a b c d] ls_adc

.model ls_nand d_nand(rise_delay=18n fall_delay=15n)
.model ls_adc adc_bridge(in_low=1.7 in_high=0.9)
.ends
*
*
**********************
*SRC=7414;7414;TTL;74xx;inverter Schmitt
*SYM=T7414
*7414 HEX SCHMITT-TRIGGER INVERTERS
*CAUTION: input is analog while output is digital
***
.subckt 7414 in out
*FAMILY TTLin TTLout
*pinout N 1 2;3 4;5 6;9 8;11 10;13 12:VCC=14 GND=7
*pinout J 1 2;3 4;5 6;9 8;11 10;13 12:VCC=14 GND=7
*pinout W 1 2;3 4;5 6;9 8;11 10;13 12:VCC=14 GND=7
ainv a out ls_inv
aadc  [in] [a] ls_adc

.model ls_inv d_inverter(rise_delay=15n fall_delay=15n)
.model ls_adc adc_bridge(in_low=1.7 in_high=0.9)
.ends
*
*
**********************
*SRC=7416;7416;TTL;74xx;inverter buffer
*SYM=INV
*7416 HEX INVERTER BUFFERS/DRIVERS
*WITH OPEN COLLECTOR HIGH-VOLTAGE OUTPUTS
***
.subckt 7416 in out
*FAMILY TTLin TTLout
*pinout N 1 2;3 4;5 6;9 8;11 10;13 12:VCC=14 GND=7
*pinout J 1 2;3 4;5 6;9 8;11 10;13 12:VCC=14 GND=7
*pinout W 1 2;3 4;5 6;9 8;11 10;13 12:VCC=14 GND=7
ainv in outi ls_inv 
aopenc outi out ls_openc

.model ls_openc d_open_c(open_delay=5p fall_delay=5p)
.model ls_inv d_inverter(rise_delay=10n fall_delay=15n)
.ends
*
*
**********************
*SRC=7417;7417;TTL;74xx;buffer/driver
*SYM=BUF
*7417 HEX BUFFERS/DRIVERS
*WITH OPEN COLLECTOR HIGH-VOLTAGE OUTPUTS
***
.subckt 7417 in out
*FAMILY TTLin TTLout
*pinout N 1 2;3 4;5 6;9 8;11 10;13 12:VCC=14 GND=7
*pinout J 1 2;3 4;5 6;9 8;11 10;13 12:VCC=14 GND=7
*pinout W 1 2;3 4;5 6;9 8;11 10;13 12:VCC=14 GND=7
abuf in outi ls_buf 
aopenc outi out ls_openc

.model ls_openc d_open_c(open_delay=1p fall_delay=1p)
.model ls_buf d_buffer(rise_delay=6n fall_delay=20n)
.ends
*
*
**********
*SRC=7420;7420;TTL;74LSxx;4 input NAND gate
*SYM=NAND4
*7420 DUAL 4-INPUT POSITIVE-NAND GATES
***
.subckt 7420 in1 in2 in3 in4 out
*FAMILY TTLin TTLin TTLin TTLin TTLout
*pinout N 1 2 4 5 6;9 10 12 13 8:VCC=14 GND=7
*pinout FK 2 3 6 8 9;13 14 18 19 12:VCC=20 GND=10
anand [in1 in2 in3 in4] out ls_nand
.model ls_nand d_nand(rise_delay=12n fall_delay=8n)
.ends
*
*
**********************
*SRC=7422;7422;TTL;74xx;4 input NAND gate
*SYM=NAND4
*7422 DUAL 4-INPUT POSITIVE-NAND GATES
*WITH OPEN-COLLECTOR OUTPUTS
***
.subckt 7422 in1 in2 in3 in4 out
*FAMILY TTLin TTLin TTLin TTLin TTLout
*pinout N 1 2 4 5 6;9 10 12 13 8:VCC=14 GND=7
*pinout J 1 2 4 5 6;9 10 12 13 8:VCC=14 GND=7
*pinout W 1 12 13 14 2;6 7 8 9 10:VCC=4 GND=11
anand [in1 in2 in3 in4] outi ls_nand
aopenc outi out ls_openc

.model ls_openc d_open_c(open_delay=1p fall_delay=1p)
.model ls_nand d_nand(rise_delay=35n fall_delay=8n)
.ends
*
*
********************** 
*SRC=7423;7423;TTL;74xx;4 input NOR gate
*SYM=T7423
*7423 DUAL 4-INPUT POSITIVE-NOR GATES WITH STROBE
***
.subckt 7423 1a 1b 1c 1d 1g x
+ xb 1y 2a 2b 2c 2d 2g 2y
*FAMILY TTLin TTLin TTLin TTLin TTLin TTLin TTLin
+ TTLout TTLin TTLin TTLin TTLin TTLin TTLout
*pinout N 2 3 5 6 4 1 15 7 10 11 13 14 12 9:VCC=16 GND=8
*pinout J 2 3 5 6 4 1 15 7 10 11 13 14 12 9:VCC=16 GND=8
*pinout W 2 3 5 6 4 1 15 7 10 11 13 14 12 9:VCC=16 GND=8
ainv1 xb xbc inv
aand1 [1a 1g] a1 and
aand2 [1b 1g] b1 and
aand3 [1c 1g] c1 and
aand4 [1d 1g] d1 and
aand5 [x xbc] x1 and
aor1 [a1 b1 c1 d1 x1] 1y ls_or

aand6 [2a 2g] a2 and
aand7 [2b 2g] b2 and
aand8 [2c 2g] c2 and
aand9 [2d 2g] d2 and
aor2 [a2 b2 c2 d2] 2y ls_or

.model inv d_inverter
.model and d_and
.model ls_or d_or(rise_delay=13n fall_delay=8n)
.ends
*
*
**********************  
*SRC=7425;7425;TTL;74xx;4 input NOR gate
*SYM=T7425
*7425 DUAL 4-INPUT POSITIVE-NOR GATES WITH STROBE
***
.subckt 7425 in1 in2 in3 in4 strobe out
*FAMILY TTLin TTLin TTLin TTLin TTLin TTLout
*pinout N 1 2 4 5 3 6;9 10 12 13 11 8:VCC=14 GND=7
*pinout J 1 2 4 5 3 6;9 10 12 13 11 8:VCC=14 GND=7
*pinout W 1 2 4 5 3 6;9 10 12 13 11 8:VCC=14 GND=7
anor [in1 in2 in3 in4] outi ls_nor
anand [outi strobe] out ls_nand
.model ls_nor d_nor(rise_delay=10n fall_delay=10n)
.model ls_nand d_nand
.ends
*
*
**********************
*SRC=7428;7428;TTL;74xx;2 input NOR gate
*SYM=NOR2
*7428 QUADRUPLE 2-INPUT POSITIVE-NOR BUFFERS
***
.subckt 7428 in1 in2 out
*FAMILY TTLin TTLin TTLout
*pinout N 2 3 1;5 6 4;8 9 10;11 12 13:VCC=14 GND=7
*pinout J 2 3 1;5 6 4;8 9 10;11 12 13:VCC=14 GND=7
*pinout W 2 3 1;5 6 4;8 9 10;11 12 13:VCC=14 GND=7
anor [in1 in2] outi ls_nor
abuf outi out ls_buf
.model ls_nor d_nor
.model ls_buf d_buffer(rise_delay=6n fall_delay=8n)
.ends
*
*
**********************
*SRC=7430;7430;TTL;74xx;8 input NAND gate
*SYM=T7430
*7430 8-INPUT POSITIVE-NAND GATES
***
.subckt 7430 in1 in2 in3 in4
+		in5 in6 in7 in8 out
*FAMILY TTLin TTLin TTLin TTLin TTLin TTLin TTLin TTLin TTLout
*pinout N 1 2 3 4 5 6 11 12 8:VCC=14 GND=7
*pinout J 1 2 3 4 5 6 11 12 8:VCC=14 GND=7
*pinout W 2 3 5 6 7 8 9 10 12:VCC=4 GND=11
anand [in1 in2 in3 in4
+	in5 in6 in7 in8] out ls_nand 
.model ls_nand d_nand(rise_delay=13n fall_delay=8n)
.ends
*
*
**********************
*SRC=7432;7432;TTL;74xx;2 input OR gate
*SYM=OR2
*7432 QUADRUPLE 2-INPUT POSITIVE-OR GATES
***
.subckt 7432 in1 in2 out
*FAMILY TTLin TTLin TTLout
*pinout N 1 2 3;4 5 6;9 10 8;12 13 11:VCC=14 GND=7
*pinout J 1 2 3;4 5 6;9 10 8;12 13 11:VCC=14 GND=7
*pinout W 1 2 3;4 5 6;9 10 8;12 13 11:VCC=14 GND=7
aor [in1 in2] out ls_or 
.model ls_or d_or(rise_delay=10n fall_delay=14n)
.ends
*
*
**********************
*SRC=7437;7437;TTL;74xx;2 input NAND gate
*SYM=NAND2
*7437 QUADRUPLE 2-INPUT POSITIVE-NAND BUFFERS
***
.subckt 7437 in1 in2 out
*FAMILY TTLin TTLin TTLout
*pinout N 1 2 3;4 5 6;9 10 8;12 13 11:VCC=14 GND=7
*pinout J 1 2 3;4 5 6;9 10 8;12 13 11:VCC=14 GND=7
*pinout W 1 2 3;4 5 6;9 10 8;12 13 11:VCC=14 GND=7
anor [in1 in2] outi ls_nand 
abuf outi out ls_buf
.model ls_nand d_nand
.model ls_buf d_buffer(rise_delay=13n fall_delay=8n)
.ends
*
*
**********************
*SRC=7438;7438;TTL;74xx;2 input NAND gate
*SYM=NAND2
*7438 QUADRUPLE 2-INPUT POSITIVE-NAND BUFFERS
*WITH OPEN-COLLECTOR OUTPUTS
***
.subckt 7438 in1 in2 out
*FAMILY TTLin TTLin TTLout
*pinout N 1 2 3;4 5 6;9 10 8;12 13 11:VCC=14 GND=7
*pinout J 1 2 3;4 5 6;9 10 8;12 13 11:VCC=14 GND=7
*pinout W 1 2 3;4 5 6;9 10 8;12 13 11:VCC=14 GND=7
anand [in1 in2] outi ls_nand 
abuf outi outj ls_buf
aopenc outj out ls_openc

.model ls_openc d_open_c
.model ls_nand d_nand
.model ls_buf d_buffer(rise_delay=14n fall_delay=11n)
.ends
*
*
*********************
*SRC=7439;7439;TTL;74xx;2 input NAND
*SYM=NAND2
*7439 QUADRUPLE 2-INPUT POSITIVE-NAND BUFFERS
*WITH OPEN-COLLECTOR OUTPUTS
*i can't find this part for *pinout ? lgm 
***
.subckt 7439 in1 in2 out
*FAMILY TTLin TTLin TTLout
*pinout N 2 3 1;5 6 4;8 9 10;11 12 13:VCC=14 GND=7
*pinout J 2 3 1;5 6 4;8 9 10;11 12 13:VCC=14 GND=7
anand [in1 in2] outi ls_nand 
abuf outi outj ls_buf
aopenc outj out ls_openc

.model ls_openc d_open_c
.model ls_nand d_nand
.model ls_buf d_buffer(rise_delay=18n fall_delay=22n)
.ends
*
*
**********************
*SRC=7440;7440;TTL;74xx;4 input NAND gate
*SYM=NAND4
*7440 DUAL 4-INPUT POSITIVE-NAND BUFFERS
***
.subckt 7440 in1 in2 in3 in4 out
*FAMILY TTLin TTLin TTLin TTLin TTLout
*pinout N 1 2 4 5 6;9 10 12 13 8:VCC=14 GND=7
*pinout J 1 2 4 5 6;9 10 12 13 8:VCC=14 GND=7
*pinout W 1 12 13 14 2;6 7 8 9 10:VCC=4 GND=11
anand [in1 in2 in3 in4] outi ls_nand
abuf outi out ls_buf
.model ls_nand d_nand
.model ls_buf d_buffer(rise_delay=13n fall_delay=8n)
.ends
*
*
**********************
*SRC=7443A;7443A;TTL;74xx;Excess3/Decimal
*SYM=T7443A
*7443A DECODER EXCESS-3-DECIMAL 4-10 LINE
***
.subckt 7443A a b c d y0 y1 y2 y3 y4 y5 y6 y7 y8 y9
*FAMILY TTLin TTLin TTLin TTLin TTLout TTLout TTLout TTLout TTLout TTLout TTLout TTLout TTLout TTLout
*pinout N 15 14 13 12 1 2 3 4 5 6 7 9 10 11:VCC=16 GND=8
*pinout J 15 14 13 12 1 2 3 4 5 6 7 9 10 11:VCC=16 GND=8
*pinout W 15 14 13 12 1 2 3 4 5 6 7 9 10 11:VCC=16 GND=8
ainv1 a ab inv
ainv2 b bb inv
ainv3 c cb inv
ainv4 d db inv

anand0 [db cb b a] y0 ls_nand
anand1 [db c bb ab] y1 ls_nand
anand2 [db c bb a] y2 ls_nand
anand3 [db c b ab] y3 ls_nand
anand4 [db c b a] y4 ls_nand
anand5 [d cb bb ab] y5 ls_nand
anand6 [d cb bb a] y6 ls_nand
anand7 [d cb b ab] y7 ls_nand
anand8 [d cb b a] y8 ls_nand
anand9 [d c bb ab] y9 ls_nand

.model inv d_inverter
.model ls_nand d_nand(rise_delay=15n fall_delay=20n)
.ends
*
*
**********************
*SRC=7444A;7444A;TTL;74xx;Gray/Decimal
*SYM=T7444A
*7444A DECODER GRAY-DECIMAL 4-10 LINE
***
.subckt 7444A a b c d y0 y1 y2 y3 y4 y5 y6 y7 y8 y9
*FAMILY TTLin TTLin TTLin TTLin TTLout TTLout TTLout TTLout TTLout TTLout TTLout TTLout TTLout TTLout
*pinout N 15 14 13 12 1 2 3 4 5 6 7 9 10 11:VCC=16 GND=8
*pinout J 15 14 13 12 1 2 3 4 5 6 7 9 10 11:VCC=16 GND=8
*pinout W 15 14 13 12 1 2 3 4 5 6 7 9 10 11:VCC=16 GND=8
ainv1 a ab inv
ainv2 b bb inv
ainv3 c cb inv
ainv4 d db inv

anand0 [db cb b ab] y0 ls_nand
anand1 [db c b ab] y1 ls_nand
anand2 [db c b a] y2 ls_nand
anand3 [db c bb a] y3 ls_nand
anand4 [db c bb ab] y4 ls_nand
anand5 [d c bb ab] y5 ls_nand
anand6 [d c bb a] y6 ls_nand
anand7 [d c b a] y7 ls_nand
anand8 [d c b ab] y8 ls_nand
anand9 [d cb b ab] y9 ls_nand

.model inv d_inverter
.model ls_nand d_nand(rise_delay=15n fall_delay=20n)
.ends
*
*
**********************
*SRC=7445;7445;TTL;74xx;BCD/Decimal
*SYM=T7445
*7445 DECODER/DRIVER BCD-DECIMAL 
*WITH OPEN-COLLECTOR OUTPUTS
***
.subckt 7445 a b c d y0 y1 y2 y3 y4 y5 y6 y7 y8 y9
*FAMILY TTLin TTLin TTLin TTLin TTLout TTLout TTLout TTLout TTLout TTLout TTLout TTLout TTLout TTLout
*pinout N 15 14 13 12 1 2 3 4 5 6 7 9 10 11:VCC=16 GND=8
*pinout J 15 14 13 12 1 2 3 4 5 6 7 9 10 11:VCC=16 GND=8
*pinout W 15 14 13 12 1 2 3 4 5 6 7 9 10 11:VCC=16 GND=8
ainv1 a ab inv
ainv2 b bb inv
ainv3 c cb inv
ainv4 d db inv

anand0 [db cb bb ab] s0 ls_nand
anand1 [db cb bb a] s1 ls_nand
anand2 [db cb b ab] s2 ls_nand
anand3 [db cb b a] s3 ls_nand
anand4 [db c bb ab] s4 ls_nand
anand5 [db c bb a] s5 ls_nand
anand6 [db c b ab] s6 ls_nand
anand7 [db c b a] s7 ls_nand
anand8 [d cb bb ab] s8 ls_nand
anand9 [d cb bb a] s9 ls_nand

aoc0 s0 y0 openc
aoc1 s1 y1 openc
aoc2 s2 y2 openc
aoc3 s3 y3 openc
aoc4 s4 y4 openc
aoc5 s5 y5 openc
aoc6 s6 y6 openc
aoc7 s7 y7 openc
aoc8 s8 y8 openc
aoc9 s9 y9 openc

.model openc d_open_c
.model inv d_inverter
.model ls_nand d_nand(rise_delay=25n fall_delay=25n)
.ends
*
*
**********************
*SRC=7446A;7446A;TTL;74xx;BCD/7-segment
*SYM=T7446A
*7446A DECODER/DRIVER BCD-7 SEGMENT WITH
*OPEN-COLLECTOR OUTPUTS
***

.subckt 7446A ina inb inc ind rbib ltb
+ bib/rbob a b c d e f g

*FAMILY TTLin TTLin TTLin TTLin TTLin TTLin TTLin TTLout 
+ TTLout TTLout TTLout TTLout TTLout TTLout
*pinout N 7 1 2 6 5 3 4 9 10 11 12 13 14 15:VCC=16 GND=8
*pinout J 7 1 2 6 5 3 4 9 10 11 12 13 14 15:VCC=16 GND=8
*pinout W 7 1 2 6 5 3 4 9 10 11 12 13 14 15:VCC=16 GND=8

ainv1 rbib rbi inv
 
ananda1 [ina ltb] a1 nand
anandb1 [inb ltb] b1 nand
anandc1 [inc ltb] c1 nand
anandd1 [ind ind] d1 nand

ananda2 [a1 bib/rbob] a2 nand 
anandb2 [b1 bib/rbob] b2 nand 
anandc2 [c1 bib/rbob] c2 nand 
anandd2 [d1 bib/rbob] d2 nand 

anand6 [ltb rbi d1 c1 b1 a1] bib/rbob nand

aand1a [b2 d2] x1 and
aand2a [a1 b1 c2] x2 and
aand3a [a2 b1 c1 d1] x3 and
aor1 [x1 x2 x3] ai or 

aand1b [b2 d2] x4 and
aand2b [a2 b1 c2] x5 and
aand3b [a1 b2 c2] x6 and
aor2 [x4 x5 x6] bi or 

aand1c [c2 d2] x7 and
aand2c [a1 b2 c1] x8 and
aor3 [x7 x8] ci or 

aand1d [a2 b1 c1 d1] x9 and
aand2d [a1 b1 c2] xa and
aand3d [a2 b2 c2] xb and
aor4 [x9 xa xb] di or 

aand1e [b1 c2] xc and
aor5 [xc a2] ei or 

aand1f [a2 b2] xd and
aand2f [b2 c1] xe and
aand3f [a2 c1 d1] xf and
aor6 [xd xe xf] fi or 

aand1g [a2 b2 c2] xg and
aand2g [b1 c1 d1 ltb] xh and
aor7 [xg xh] gi or 

aop1 ai a open
aop2 bi b open
aop3 ci c open
aop4 di d open
aop5 ei e open
aop6 fi f open
aop7 gi g open

.model inv d_inverter
.model nand d_nand
.model and d_and
.model or d_or(rise_delay=50n fall_delay=50n)
.model open d_open_c

.ends

*
*
********************** 
*SRC=7448;7448;TTL;74xx;BCD/7-segment
*SYM=T7448
*7448 DECODER/DRIVER BCD-7 SEGMENT WITH
*INTERNAL PULLUPS
***

.subckt 7448 ina inb inc ind rbib ltb
+ bib/rbob a b c d e f g

*FAMILY TTLin TTLin TTLin TTLin TTLin TTLin TTLin TTLout 
+ TTLout TTLout TTLout TTLout TTLout TTLout
*pinout N 7 1 2 6 5 3 4 9 10 11 12 13 14 15:VCC=16 GND=8
*pinout J 7 1 2 6 5 3 4 9 10 11 12 13 14 15:VCC=16 GND=8
*pinout W 7 1 2 6 5 3 4 9 10 11 12 13 14 15:VCC=16 GND=8

ainv1 rbib rbi inv
 
ananda1 [ina ltb] a1 nand
anandb1 [inb ltb] b1 nand
anandc1 [inc ltb] c1 nand
anandd1 [ind ind] d1 nand

ananda2 [a1 bib/rbob] a2 nand 
anandb2 [b1 bib/rbob] b2 nand 
anandc2 [c1 bib/rbob] c2 nand 
anandd2 [d1 bib/rbob] d2 nand 

anand6 [ltb rbi d1 c1 b1 a1] bib/rbob nand

aand1a [b2 d2] x1 and
aand2a [a1 b1 c2] x2 and
aand3a [a2 b1 c1 d1] x3 and
aor1 [x1 x2 x3] ai or 

aand1b [b2 d2] x4 and
aand2b [a2 b1 c2] x5 and
aand3b [a1 b2 c2] x6 and
aor2 [x4 x5 x6] bi or 

aand1c [c2 d2] x7 and
aand2c [a1 b2 c1] x8 and
aor3 [x7 x8] ci or 

aand1d [a2 b1 c1 d1] x9 and
aand2d [a1 b1 c2] xa and
aand3d [a2 b2 c2] xb and
aor4 [x9 xa xb] di or 

aand1e [b1 c2] xc and
aor5 [xc a2] ei or 

aand1f [a2 b2] xd and
aand2f [b2 c1] xe and
aand3f [a2 c1 d1] xf and
aor6 [xd xe xf] fi or 

aand1g [a2 b2 c2] xg and
aand2g [b1 c1 d1 ltb] xh and
aor7 [xg xh] gi or 

ah h high

aand1 [ai h] a and
aand2 [bi h] b and
aand3 [ci h] c and
aand4 [di h] d and
aand5 [ei h] e and
aand6 [fi h] f and
aand7 [gi h] g and


.model high d_pullup
.model inv d_inverter
.model nand d_nand
.model and d_and
.model or d_or(rise_delay=50n fall_delay=50n)

.ends
*
*
**********************
*SRC=7449;7449;TTL;74xx;BCD/7-segment
*SYM=T7449
*7449 DECODER/DRIVER BCD-7 SEGMENT WITH
*OPEN-COLLECTOR OUTPUTS
***

.subckt 7449 ina inb inc ind rbib
+  a b c d e f g

*FAMILY TTLin TTLin TTLin TTLin TTLin
+ TTLout TTLout TTLout TTLout TTLout TTLout TTLout
*pinout D 5 1 2 4 3 11 10 9 8 6 13 12:VCC=14 GND=7
*pinout N 5 1 2 4 3 11 10 9 8 6 13 12:VCC=14 GND=7

ainv1 rbib rbi inv

ah ltb high
.model high d_pullup

ananda1 [ina ltb] a1 nand
anandb1 [inb ltb] b1 nand
anandc1 [inc ltb] c1 nand
anandd1 [ind ind] d1 nand

ananda2 [a1 bib/rbob] a2 nand 
anandb2 [b1 bib/rbob] b2 nand 
anandc2 [c1 bib/rbob] c2 nand 
anandd2 [d1 bib/rbob] d2 nand 

anand6 [ltb rbi d1 c1 b1 a1] bib/rbob nand

aand1a [b2 d2] x1 and
aand2a [a1 b1 c2] x2 and
aand3a [a2 b1 c1 d1] x3 and
aor1 [x1 x2 x3] ai or 

aand1b [b2 d2] x4 and
aand2b [a2 b1 c2] x5 and
aand3b [a1 b2 c2] x6 and
aor2 [x4 x5 x6] bi or 

aand1c [c2 d2] x7 and
aand2c [a1 b2 c1] x8 and
aor3 [x7 x8] ci or 

aand1d [a2 b1 c1 d1] x9 and
aand2d [a1 b1 c2] xa and
aand3d [a2 b2 c2] xb and
aor4 [x9 xa xb] di or 

aand1e [b1 c2] xc and
aor5 [xc a2] ei or 

aand1f [a2 b2] xd and
aand2f [b2 c1] xe and
aand3f [a2 c1 d1] xf and
aor6 [xd xe xf] fi or 

aand1g [a2 b2 c2] xg and
aand2g [b1 c1 d1 ltb] xh and
aor7 [xg xh] gi or 

aop1 ai a open
aop2 bi b open
aop3 ci c open
aop4 di d open
aop5 ei e open
aop6 fi f open
aop7 gi g open

.model inv d_inverter
.model nand d_nand
.model and d_and
.model or d_or(rise_delay=50n fall_delay=50n)
.model open d_open_c

.ends
*
***********************
*SRC=7450;7450;TTL;74xx;AND-OR-INVERT gate
*SYM=T7450
*7450 DUAL 2-WIDE 2-INPUT AND-OR-INVERT GATES 
***
.subckt 7450 1a 1b 1c 1d x xb 1y
+ 2a 2b 2c 2d 2y
*FAMILY TTLin TTLin TTLin TTLin TTLin TTLin TTLout
+ TTLin TTLin TTLin TTLin TTLout
*pinout N 1 13 9 10 11 12 8 2 3 4 5 6:VCC=14 GND=7
*pinout J 1 13 9 10 11 12 8 2 3 4 5 6:VCC=14 GND=7
*pinout W 3 5 13 14 1 2 12 6 7 8 9 10:VCC=4 GND=11
ainv xb xbi inv
aanda1 [1a 1b] a1 and
aandb1 [1c 1d] b1 and
aandc1 [x xbi] c1 and
anor1 [a1 b1 c1] 1y ls_nor

aanda2 [2a 2b] a2 and
aandb2 [2c 2d] b2 and
anor2 [a2 b2] 2y ls_nor

.model inv d_inverter
.model and d_and
.model ls_nor d_nor(rise_delay=13n fall_delay=8n)

.ends
*
*
**********************
*SRC=7453;7453;TTL;74xx;AND-OR-INVERT gate
*SYM=T7453
*7453 EXPANDABLE 4-WIDE AND-OR-INVERT GATES 
***
.subckt 7453 a b c d e f g h x xb y
*FAMILY TTLin TTLin TTLin TTLin TTLin TTLin TTLin TTLin TTLin TTLin TTLout
*pinout N 1 13 2 3 4 5 9 10 11 12 8:VCC=14 GND=7
*pinout J 1 13 2 3 4 5 9 10 11 12 8:VCC=14 GND=7
*pinout W 3 5 6 7 8 9 13 14 1 2 12:VCC=4 GND=11
ainv xb xbc inv
aand1 [a b] x1 ls_and
aand2 [c d] x2 ls_and
aand3 [e f] x3 ls_and
aand4 [g h] x4 ls_and
aand5 [x xbc] x5 ls_and

anor [x1 x2 x3 x4 x5] y ls_nor

.model inv d_inverter
.model ls_and d_and
.model ls_nor d_nor(rise_delay=13n fall_delay=8n)
.ends
*
*
**********************
*SRC=7460;7460;TTL;74xx;4 input expander
*SYM=T7460
*7460 DUAL 4-INPUT EXPANDERS 
***
.subckt 7460 a b c d x xbar
*FAMILY TTLin TTLin TTLin TTLin TTLout TTLout
*pinout N 1 2 3 13 11 12;4 5 6 8 10 9:VCC=14 GND=7
*pinout J 1 2 3 13 11 12;4 5 6 8 10 9:VCC=14 GND=7
*pinout W 3 5 6 7 1 2;8 9 10 12 14 13:VCC=4 GND=11
aand [a b c d] x ls_and
ainv x xbar ls_inv
.model ls_and d_and(rise_delay=10n fall_delay=10n)
.model ls_inv d_inverter(rise_delay=1n fall_delay=1n)
.ends
*
*
**********************
*SRC=7470;7470;TTL;74xx;J-K Flip-Flop
*SYM=T7470
*7470 AND-GATED J-K POSITIVE-EDGE-TRIGGERED
*FLIP-FLOPS WITH PRESET & CLEAR 
***
.subckt 7470 clk prebar clrbar j1 j2 jbar
+ k1 k2 kbar q qbar
*pinout N 12 13 2 3 4 5 10 11 9 8 6:VCC=14 GND=7
*pinout J 12 13 2 3 4 5 10 11 9 8 6:VCC=14 GND=7
*pinout W 2 3 5 7 8 9 1 14 13 12 10:VCC=4 GND=11
*FAMILY  TTLin TTLin TTLin TTLin  TTLin TTLin TTLin TTLin TTLin TTLout TTLout 
ainv1 jbar j3 inv
ainv2 kbar k3 inv
ainv3 clrbar clr inv
ainv4 prebar pre inv

aand1 [j1 j2 j3] j and
aand2 [k1 k2 k3] k and
ajkff j k clk pre clr q qbar ls_jkff

.model and d_and
.model inv d_inverter
.model ls_jkff d_jkff(clk_delay=28n set_delay=23n
+ reset_delay=4n rise_delay=9n)
.ends
*
*
**********************
*SRC=7472;7472;TTL;74xx;J-K Flip-Flop
*SYM=T7472
*7472 AND-GATED J-K MASTER-SLAVE
*FLIP-FLOPS WITH PRESET & CLEAR 
***
.subckt 7472 prebar clrbar clk j1 j2 j3
+ k1 k2 k3 q qbar
*FAMILY  TTLin TTLin TTLin TTLin  TTLin TTLin TTLin TTLin TTLin TTLout TTLout 
*pinout N 13 2 12 3 4 5 9 10 11 8 6:VCC=14 GND=7
*pinout J 13 2 12 3 4 5 9 10 11 8 6:VCC=14 GND=7
*pinout W 3 5 2 7 8 9 1 14 13 12 10:VCC=4 GND=11
ainv1 clrbar clr inv
ainv2 prebar pre inv

aand1 [j1 j2 j3] j and
aand2 [k1 k2 k3] k and
ajkff j k clk pre clr q qbar ls_jkff

.model and d_and
.model inv d_inverter
.model ls_jkff d_jkff(clk_delay=10n set_delay=20n
+ reset_delay=20n rise_delay=6n fall_delay=6n)

.ends
*
*
********************** 
*SRC=7473;7473;TTL;74xx;J-K Flip-Flop
*SYM=T7473
*7473 DUAL J-K FLIP-FLOPS WITH CLEAR 
***
.subckt 7473 clk clrbar j k q qbar
*FAMILY  TTLin TTLin TTLin TTLin TTLout TTLout
*pinout N 1 2 14 3 12 13;5 6 7 10 9 8:VCC=4 GND=11
*pinout J 1 2 14 3 12 13;5 6 7 10 9 8:VCC=4 GND=11
*pinout W 1 2 14 3 12 13;5 6 7 10 9 8:VCC=4 GND=11
aone pre ls_pldwn
ainv clrbar clr ls_inv
ajk j k clk pre clr q qbar ls_jkff
.model ls_pldwn d_pulldown
.model ls_jkff d_jkff(clk_delay=1p rise_delay=10n 
+ fall_delay=19n)
.model ls_inv d_inverter
.ends
*
*
**********************
*SRC=7474;7474;TTL;74xx;D Flip-Flop
*SYM=T7474
*7474 DUAL D-TYPE POSITIVE-EDGE-TRIGGERED 
*FLIP-FLOPS WITH PRESET & CLEAR 
***
.subckt 7474 clrbar d clk prebar q qbar
*FAMILY  TTLin TTLin TTLin TTLin TTLout TTLout
*pinout N 1 2 3 4 5 6;13 12 11 10 9 8:VCC=14 GND=7
*pinout J 1 2 3 4 5 6;13 12 11 10 9 8:VCC=14 GND=7
*pinout W 3 2 1 14 13 12;5 6 7 8 9 10:VCC=4 GND=11
adff d clk prebar clrbar q qbar ls_dff


.model ls_dff d_dff(clk_delay=1p rise_delay=14n 
+ fall_delay=20n ic=1)
.ends
*
*
**********************
*SRC=7476;7476;TTL;74xx;J-K Flip-Flop
*SYM=T7476
*7476 DUAL J-K FLIP-FLOPS WITH PRESET & CLEAR 
***
.subckt 7476 clk prebar clrbar j k q qbar
*FAMILY  TTLin TTLin TTLin TTLin TTLin TTLout TTLout
*pinout N 1 2 3 4 16 15 14;6 7 8 9 12 11 10:VCC=5 GND=12
*pinout J 1 2 3 4 16 15 14;6 7 8 9 12 11 10:VCC=5 GND=12
*pinout W 1 2 3 4 16 15 14;6 7 8 9 12 11 10:VCC=5 GND=12
ainv1 prebar pre ls_inv
ainv2 clrbar clr ls_inv
ainv3 clk clkbar ls_inv
ajk j k clkbar pre clr q qbar ls_jkff

.model ls_jkff d_jkff(clk_delay=1p rise_delay=16n 
+ fall_delay=25n)
.model ls_inv d_inverter
.ends
*
*
**********************
*SRC=7477;7477;TTL;74xx;4-bit bistable latch
*SYM=T7477
*7477 4-BIT BISTABLE LATCHES
*The IC contains actually 2 2-bit latches
***
.subckt 7477 1d 2d c 1q 2q
*FAMILY  TTLin TTLin TTLin TTLout TTLout
*pinout W 1 2 12 14 13;5 6 3 9 8:VCC=4 GND=11
adl1  1d c sr sr 1q 1qbar ls_dlatch
adl2  2d c sr sr 2q 2qbar ls_dlatch
azero1 sr pldwn

.model ls_dlatch d_dlatch(data_delay=14n 
+ enable_delay=7n
+ rise_delay=2n)
.model pldwn d_pulldown
.ends
*
*
**********************
*SRC=7482;7482;TTL;74xx;2-bit full adder
*SYM=T7482
*7482 2-BIT BINARY FULL ADDERS 
***
.subckt 7482 c0 a1 a2 b1 b2 sum1 sum2 c2
*FAMILY  TTLin TTLin TTLin TTLin TTLin TTLout TTLout TTLout
*pinout N 5 2 14 3 13 1 12 10:VCC=4 GND=11
*pinout J 5 2 14 3 13 1 12 10:VCC=4 GND=11
*pinout W 5 2 14 3 13 1 12 10:VCC=4 GND=11
abuf1 a1 ia1 ls_buf1
abuf2 a2 ia2 ls_buf1
abuf3 b1 ib1 ls_buf1
abuf4 b2 ib2 ls_buf1
abuf5 c0 ic0 ls_buf2

x1 ia1 ib1 ic0 sum1 c1 add1
x2 ia2 ib2 c1 sum2 c2 add1

.subckt add1 a b ci s co
axor1 [a b] x1 xor
axor2 [x1 ci] s xor
aand1 [a b] x2 and
aand2 [ci x1] x3 and
aor [x2 x3] co or
.model xor d_xor
.model and d_and
.model or d_or
.ends add1

.model ls_buf1 d_buffer(rise_delay=20n fall_delay=20n)
.model ls_buf2 d_buffer(rise_delay=20n fall_delay=20n)

.ends
*
*
**********************
*SRC=7483A;7483A;TTL;74xx;4-bit full adder
*SYM=T7483A
*7483A 4-BIT BINARY FULL ADDERS WITH FAST CARRY 
***
.subckt 7483A c0 a1 a2 a3 a4 b1 b2 b3 b4 c4
+ 	sum1 sum2 sum3 sum4
*FAMILY  TTLin TTLin TTLin TTLin TTLin TTLin TTLin TTLin TTLin TTLout  
+ TTLout TTLout TTLout TTLout
*pinout N 13 10 8 3 1 11 7 4 16 14 9 6 2 15:VCC=5 GND=12
*pinout J 13 10 8 3 1 11 7 4 16 14 9 6 2 15:VCC=5 GND=12
*pinout W 13 10 8 3 1 11 7 4 16 14 9 6 2 15:VCC=5 GND=12
abuf1 a1 ia1 ls_buf1
abuf2 a2 ia2 ls_buf1
abuf3 a3 ia3 ls_buf1
abuf4 a4 ia4 ls_buf1
abuf5 b1 ib1 ls_buf1
abuf6 b2 ib2 ls_buf1
abuf7 b3 ib3 ls_buf1
abuf8 b4 ib4 ls_buf1
abuf9 c0 ic0 ls_buf2

x1 ia1 ib1 ic0 sum1 c1 add1
x2 ia2 ib2 c1 sum2 c2 add1
x3 ia3 ib3 c2 sum3 c3 add1
x4 ia4 ib4 c3 sum4 c4 add1


.subckt add1 a b ci s co
axor1 [a b] x1 xor
axor2 [x1 ci] s xor
aand1 [a b] x2 and
aand2 [ci x1] x3 and
aor [x2 x3] co or
.model xor d_xor
.model and d_and
.model or d_or
.ends add1

.model ls_buf1 d_buffer(rise_delay=14n fall_delay=14n)
.model ls_buf2 d_buffer(rise_delay=9n fall_delay=9n)

.ends
*
*
**********************
*SRC=7486;7486;TTL;74xx;2 input XOR
*SYM=XOR
*7486 QUADRUPLE 2-INPUT EXCLUSIVE-OR GATES
***
.subckt 7486 in1 in2 out
*FAMILY TTLin TTLin TTLout
*pinout N 1 2 3;4 5 6;9 10 8;12 13 11:VCC=14 GND=7
*pinout J 1 2 3;4 5 6;9 10 8;12 13 11:VCC=14 GND=7
*pinout W 1 2 3;4 5 6;9 10 8;12 13 11:VCC=14 GND=7
axor [in1 in2] out ls_xor 
.model ls_xor d_xor(rise_delay=16n fall_delay=12n)
.ends
*
*
********************** 
*SRC=7494;7494;TTL;74xx;4-bit shift register
*SYM=T7494
*7494 4-BIT SHIFT REGISTERS
***
.subckt 7494 clr clk ser pe1 p1a p1b p1c p1d
+ pe2 p2a p2b p2c p2d qd
*FAMILY TTLin TTLin TTLin TTLin TTLin TTLin TTLin TTLin
+  TTLin TTLin TTLin TTLin TTLin TTLout 
*pinout N 10 8 7 6 1 2 3 4 15 16 14 13 11 9:VCC=5 GND=12 
*pinout J 10 8 7 6 1 2 3 4 15 16 14 13 11 9:VCC=5 GND=12 
*pinout W 10 8 7 6 1 2 3 4 15 16 14 13 11 9:VCC=5 GND=12 
x1 pe1 p1a pe2 p2a prea andnor
x2 pe1 p1b pe2 p2b preb andnor
x3 pe1 p1c pe2 p2c prec andnor
x4 pe1 p1d pe2 p2d pred andnor
ainv1 ser serb inv
ajkff1 ser serb clk prea clr qa qab ls_jkff  
ajkff2 qa qab clk preb clr qb qbb ls_jkff 
ajkff3 qb qbb clk prec clr qc qcb  ls_jkff
ajkff4 qc qcb clk pred clr qd qdb  ls_jkff

.subckt andnor a b c d out
aand1 [a b] x1 and
aand2 [c d] x2 and
anor [x1 x2] out nor
.model and d_and
.model nor d_nor
.ends andnor

.model ls_jkff d_jkff(clk_delay=20n set_delay=20n
+ reset_delay=10n)
.model inv d_inverter

.ends
*
*
**********************
*SRC=7496;7496;TTL;74xx;5-bit shift register
*SYM=T7496
*7496 8-BIT PARALLEL-OUT SERIAL SHIFT REGISTERS
***
.subckt 7496 clrbar clk ser pre a b c d e
+ qa qb qc qd qe
*FAMILY TTLin TTLin TTLin TTLin  TTLin TTLin  TTLin TTLin  TTLin
+ TTLout TTLout TTLout TTLout TTLout 
*pinout N 16 1 9 8 2 3 4 6 7 15 14 13 11 10:VCC=5 GND=12 