**********
* Copyright Intusoft 1997
* All Rights Reserved
**********
*********************************************************
*  LOW-POWER SCHOTTKY (LS)DIGITAL LIBRARY BASED ON THE  *
*	   TEXAS INSTRUMENTS DATA BOOK (Volume 1)	     	*				
*									  					*
*DEVELOPPED FOR INTUSOFT BY JEAN-CLAUDE MBOLI		  	*
*Phone:(33) 4 76 44 43 30	    Fax:(33) 4 76 44 43 52	* 
*e-mail:101736.631@compuserve.com				  		*
*									  					*
*				September 1996				      		*
*				  					  					*
*********************************************************
*********************************************************
*SRC=74LS00;74LS00;TTL;74LSxx;2 input NAND gate
*SYM=NAND2
*74LS00 QUADRUPLE 2-INPUT POSITIVE-NAND GATES
***
.subckt 74LS00 in1 in2 out
*FAMILY TTLin TTLin TTLout
*pinout N 1 2 3;4 5 6;9 10 8;12 13 11:VCC=14 GND=7
*pinout J 1 2 3;4 5 6;9 10 8;12 13 11:VCC=14 GND=7
*pinout D 1 2 3;4 5 6;9 10 8;12 13 11:VCC=14 GND=7
*pinout FN 2 3 4;6 8 9;13 14 12;18 19 16:VCC=20 GND=10
anand [in1 in2] out LS_nand 
.model LS_nand d_nand(rise_delay=9n fall_delay=10n)
.ends
*
*
**********************
*SRC=74LS01;74LS01;TTL;74LSxx;2 input NAND gate
*SYM=NAND2
*74LS01 QUADRUPLE 2-INPUT POSITIVE-NAND GATES
*WITH OPEN COLLECTOR OUTPUTS
***
.subckt 74LS01 in1 in2 out
*FAMILY TTLin TTLin TTLout
*pinout N 2 3 1;5 6 4;8 9 10;11 12 13:VCC=14 GND=7
*pinout J 2 3 1;5 6 4;8 9 10;11 12 13:VCC=14 GND=7
*pinout D 2 3 1;5 6 4;8 9 10;11 12 13:VCC=14 GND=7
*pinout FN 3 4 2;8 9 6;12 13 14;16 18 19:VCC=20 GND=10
anand [in1 in2] outi ls_nand
aopenc outi out ls_openc
.model ls_nand d_nand(rise_delay=17n fall_delay=15n)
.model ls_openc d_open_c(open_delay=1p fall_delay=1p)
.ends
*
*
**********************
*SRC=74LS02;74LS02;TTL;74LSxx;2 input NOR gate
*SYM=NOR2
*74LS02 QUADRUPLE 2-INPUT POSITIVE-NOR GATES
***
.subckt 74LS02 in1 in2 out
*FAMILY TTLin TTLin TTLout
*pinout N 2 3 1;5 6 4;8 9 10;11 12 13:VCC=14 GND=7
*pinout J 2 3 1;5 6 4;8 9 10;11 12 13:VCC=14 GND=7
*pinout D 2 3 1;5 6 4;8 9 10;11 12 13:VCC=14 GND=7
*pinout FN 3 4 2;8 9 6;12 13 14; 16 18 19:VCC=20 GND=10
anor [in1 in2] out ls_nor 
.model ls_nor d_nor(rise_delay=10n fall_delay=10n)
.ends
*
*
**********************
*SRC=74LS03;74LS03;TTL;74LSxx;2 input NAND gate
*SYM=NAND2
*74LS03 QUADRUPLE 2-INPUT POSITIVE-NAND GATES
*WITH OPEN COLLECTOR OUTPUTS
***
.subckt 74LS03 in1 in2 out
*FAMILY TTLin TTLin TTLout
*pinout N 1 2 3;4 5 6;9 10 8;12 13 11:VCC=14 GND=7
*pinout J 1 2 3;4 5 6;9 10 8;12 13 11:VCC=14 GND=7
*pinout D 1 2 3;4 5 6;9 10 8;12 13 11:VCC=14 GND=7
*pinout FN 2 3 4;6 8 9;13 14 12;18 19 16:VCC=20 GND=10
anand [in1 in2] outi ls_nand 
aopenc outi out ls_openc
.model ls_nand d_nand(rise_delay=17n fall_delay=15n)
.model ls_openc d_open_c(open_delay=1p fall_delay=1p)
.ends
*
*
**********************
*SRC=74LS04;74LS04;TTL;74LSxx;inverter
*SYM=INV
*74LS04 HEX INVERTERS
***
.subckt 74LS04 in out
*FAMILY TTLin TTLout
*pinout N 1 2;3 4;5 6;9 8;11 10;13 12:VCC=14 GND=7
*pinout J 1 2;3 4;5 6;9 8;11 10;13 12:VCC=14 GND=7
*pinout D 1 2;3 4;5 6;9 8;11 10;13 12:VCC=14 GND=7
*pinout FN 2 3;4 6;8 9;13 12;16 14;19 18:VCC=20 GND=10
ainv in out ls_inv 
.model ls_inv d_inverter(rise_delay=9n fall_delay=10n)
.ends
*
*
**********************
*SRC=74LS05;74LS05;TTL;74LSxx;inverter
*SYM=INV
*74LS05 HEX INVERTERS
*WITH OPEN COLLECTOR OUTPUTS
***
.subckt 74LS05 in out
*FAMILY TTLin TTLout
*pinout N 1 2;3 4;5 6;9 8;11 10;13 12:VCC=14 GND=7
*pinout J 1 2;3 4;5 6;9 8;11 10;13 12:VCC=14 GND=7
*pinout D 1 2;3 4;5 6;9 8;11 10;13 12:VCC=14 GND=7
*pinout FN 2 3;4 6;8 9;13 12;16 14;19 18:VCC=20 GND=10
ainv in outi ls_inv
aopenc outi out ls_openc
.model ls_openc d_open_c(open_delay=1p fall_delay=1p) 
.model ls_inv d_inverter(rise_delay=17n fall_delay=15n)
.ends
*
*
**********************
*SRC=74LS06;74LS06;TTL;74LSxx;inverter buffer
*SYM=INV
*74LS06 HEX INVERTER BUFFERS/DRIVERS
*WITH OPEN COLLECTOR HIGH VOLTAGE OUTPUTS
***
.subckt 74LS06 in out
*FAMILY TTLin TTLout
*pinout N 1 2;3 4;5 6;9 8;11 10;13 12:VCC=14 GND=7
*pinout J 1 2;3 4;5 6;9 8;11 10;13 12:VCC=14 GND=7
*pinout D 1 2;3 4;5 6;9 8;11 10;13 12:VCC=14 GND=7
*pinout FN 2 3;4 6;8 9;13 12;16 14;19 18:VCC=20 GND=10

ainv in outi ls_inv
aopenc outi out ls_openc

.model ls_openc d_open_c(open_delay=1p fall_delay=1p) 
.model ls_inv d_inverter(rise_delay=7n fall_delay=10n)
.ends
*
*
**********************
*SRC=74LS07;74LS07;TTL;74LSxx;buffer/driver
*SYM=BUF
*74LS07 HEX BUFFERS/DRIVERS
*WITH OPEN COLLECTOR HIGH-VOLTAGE OUTPUTS
***
.subckt 74LS07 in out
*FAMILY TTLin TTLout
*pinout N 1 2;3 4;5 6;9 8;11 10;13 12:VCC=14 GND=7
*pinout J 1 2;3 4;5 6;9 8;11 10;13 12:VCC=14 GND=7
*pinout D 1 2;3 4;5 6;9 8;11 10;13 12:VCC=14 GND=7
*pinout FN 2 3;4 6;8 9;13 12;16 14;19 18:VCC=20 GND=10

abuf in outi ls_buf
aopenc outi out ls_openc

.model ls_openc d_open_c(open_delay=1p fall_delay=1p)  
.model ls_buf d_buffer(rise_delay=6n fall_delay=19n)
.ends
*
*
**********************
*SRC=74LS08;74LS08;TTL;74LSxx;2 input AND gate
*SYM=AND2
*74LS08 QUADRUPLE 2-INPUT POSITIVE-AND GATES
***
.subckt 74LS08 in1 in2 out
*FAMILY TTLin TTLin TTLout
*pinout N 1 2 3;4 5 6;9 10 8;12 13 11:VCC=14 GND=7
*pinout J 1 2 3;4 5 6;9 10 8;12 13 11:VCC=14 GND=7
*pinout D 1 2 3;4 5 6;9 10 8;12 13 11:VCC=14 GND=7
*pinout FN 2 3 4;6 8 9;13 14 12;18 19 16:VCC=20 GND=10
aand [in1 in2] out ls_and 
.model ls_and d_and(rise_delay=8n fall_delay=10n)
.ends
*
*
**********************
*SRC=74LS09;74LS09;TTL;74LSxx;2 input AND gate
*SYM=AND2
*74LS09 QUADRUPLE 2-INPUT POSITIVE-AND GATES
*WITH OPEN COLLECTOR OUTPUTS
***
.subckt 74LS09 in1 in2 out
*FAMILY TTLin TTLin TTLout
*pinout N 1 2 3;4 5 6;9 10 8;12 13 11:VCC=14 GND=7
*pinout J 1 2 3;4 5 6;9 10 8;12 13 11:VCC=14 GND=7
*pinout D 1 2 3;4 5 6;9 10 8;12 13 11:VCC=14 GND=7
*pinout FN 2 3 4;6 8 9;13 14 12;18 19 16:VCC=20 GND=10
aand [in1 in2] outi ls_and 
aopenc outi out ls_openc
.model ls_openc d_open_c(open_delay=1p fall_delay=1p)  
.model ls_and d_and(rise_delay=20n fall_delay=17n)
.ends
*
*
**********************
*SRC=74LS10;74LS10;TTL;74LSxx;3 input NAND gate
*SYM=NAND3
*74LS10 TRIPLE 3-INPUT POSITIVE-NAND GATES
***
.subckt 74LS10 in1 in2 in3 out
*FAMILY TTLin TTLin TTLin TTLout
*pinout N 1 2 13 12;3 4 5 6;9 10 11 8:VCC=14 GND=7
*pinout J 1 2 13 12;3 4 5 6;9 10 11 8:VCC=14 GND=7
*pinout D 1 2 13 12;3 4 5 6;9 10 11 8:VCC=14 GND=7
*pinout FN 2 3 19 18;4 6 8 9;13 14 16 12:VCC=20 GND=10
anand [in1 in2 in3] out ls_nand 
.model ls_nand d_nand(rise_delay=9n fall_delay=10n)
.ends
*
*
**********************
*SRC=74LS11;74LS11;TTL;74LSxx;3 input AND gate
*SYM=AND3
*74LS11 TRIPLE 3-INPUT POSITIVE-AND GATES
***
.subckt 74LS11 in1 in2 in3 out
*FAMILY TTLin TTLin TTLin TTLout
*pinout N 1 2 13 12;3 4 5 6;9 10 11 8:VCC=14 GND=7
*pinout J 1 2 13 12;3 4 5 6;9 10 11 8:VCC=14 GND=7
*pinout D 1 2 13 12;3 4 5 6;9 10 11 8:VCC=14 GND=7
*pinout FN 2 3 19 18;4 6 8 9;13 14 16 12:VCC=20 GND=10
aand [in1 in2 in3] out ls_and 
.model ls_and d_and(rise_delay=8n fall_delay=10n)
.ends
*
*
**********************
*SRC=74LS14;74LS14;TTL;74LSxx;inverter Schmitt
*SYM=INV
*74LS14 HEX SCHMITT-TRIGGER INVERTERS
*CAUTION: input is analog while output is digital
***
.subckt 74LS14 in out
*FAMILY ANALOG TTLout
*pinout N 1 2;3 4;5 6;9 8;11 10;13 12:VCC=14 GND=7
*pinout J 1 2;3 4;5 6;9 8;11 10;13 12:VCC=14 GND=7
*pinout D 1 2;3 4;5 6;9 8;11 10;13 12:VCC=14 GND=7
*pinout FN 2 3;4 6;8 9;13 12;16 14;19 18:VCC=20 GND=10
ainv a out ls_inv
aadc  [in] [a] ls_adc
.model ls_inv d_inverter(rise_delay=15n fall_delay=15n)
.model ls_adc adc_bridge(in_low=1.6 in_high=0.8)
.ends
*
*
**********************
*SRC=74LS20;74LS20;TTL;74LSxx;4 input NAND gate
*SYM=NAND4
*74LS20 DUAL 4-INPUT POSITIVE-NAND GATES
***
.subckt 74LS20 in1 in2 in3 in4 out
*FAMILY TTLin TTLin TTLin TTLin TTLout
*pinout N 1 2 4 5 6;9 10 12 13 8:VCC=14 GND=7
*pinout J 1 2 4 5 6;9 10 12 13 8:VCC=14 GND=7
*pinout D 1 2 4 5 6;9 10 12 13 8:VCC=14 GND=7
*pinout FN 2 3 6 8 9;13 14 18 19 12:VCC=20 GND=10
anand [in1 in2 in3 in4] out ls_nand
.model ls_nand d_nand(rise_delay=9n fall_delay=10n)
.ends
*
*
**********
*SRC=74LS21;74LS21;TTL;74LSxx;4 input AND gate
*SYM=AND4
*NAME=D_and;A;A;[4]#1
*FAMILY TTLin TTLin TTLin TTLin TTLout
*pinout N 1 2 4 5 6;9 10 12 13 8:VCC=14 GND=7
*pinout J 1 2 4 5 6;9 10 12 13 8:VCC=14 GND=7
*pinout D 1 2 4 5 6;9 10 12 13 8:VCC=14 GND=7
*pinout FN 2 3 6 8 9;13 14 18 19 12:VCC=20 GND=10
*PARAM=rise_delay;rise delay;real;8n;1p -;no;-;yes
*PARAM=fall_delay;fall delay;real;10n;1p -;no;-;yes
*PARAM=input_load;input load value (F);real;1p;-;no;-;yes
.MODEL 74LS21 D_And(Rise_Delay=8N Fall_Delay=10N Input_Load=1P)
**********************
*SRC=74LS30;74LS30;TTL;74LSxx;8 input NAND gate
*SYM=T7430
*74LS30 8-INPUT POSITIVE-NAND GATES
***
.subckt 74LS30 in1 in2 in3 in4
+		in5 in6 in7 in8 out
*FAMILY TTLin TTLin TTLin TTLin TTLin TTLin TTLin TTLin TTLout
*pinout N 1 2 3 4 5 6 11 12 8:VCC=14 GND=7
*pinout J 1 2 3 4 5 6 11 12 8:VCC=14 GND=7
*pinout D 1 2 3 4 5 6 11 12 8:VCC=14 GND=7
*pinout FN 2 3 4 6 8 9 16 18 12:VCC=20 GND=10
anand [in1 in2 in3 in4
+	in5 in6 in7 in8] out ls_nand 
.model ls_nand d_nand(rise_delay=8n fall_delay=13n)
.ends
*
*
**********************
*SRC=74LS32;74LS32;TTL;74LSxx;2 input OR gate
*SYM=OR2
*74LS32 QUADRUPLE 2-INPUT POSITIVE-OR GATES
***
.subckt 74LS32 in1 in2 out
*FAMILY TTLin TTLin TTLout
*pinout N 1 2 3;4 5 6;9 10 8;12 13 11:VCC=14 GND=7
*pinout J 1 2 3;4 5 6;9 10 8;12 13 11:VCC=14 GND=7
*pinout D 1 2 3;4 5 6;9 10 8;12 13 11:VCC=14 GND=7
*pinout FN 2 3 4;6 8 9;13 14 12;18 19 16:VCC=20 GND=10
aor [in1 in2] out ls_or 
.model ls_or d_or(rise_delay=14n fall_delay=14n)
.ends
*
*
**********************
*SRC=74LS33;74LS33;TTL;74LSxx;2 input NOR gate
*SYM=NOR2
*74LS33 QUADRUPLE 2-INPUT POSITIVE-NOR BUFFERS
***
.subckt 74LS33 in1 in2 out
*FAMILY TTLin TTLin TTLout
*pinout N 2 3 1;5 6 4;8 9 10;11 12 13:VCC=14 GND=7
*pinout J 2 3 1;5 6 4;8 9 10;11 12 13:VCC=14 GND=7
*pinout D 2 3 1;5 6 4;8 9 10;11 12 13:VCC=14 GND=7
*pinout FN 3 4 2;8 9 6;12 13 14; 16 18 19:VCC=20 GND=10
anor [in1 in2] outi ls_nor 
abuf outi out ls_buf
.model ls_nor d_nor
.model ls_buf d_buffer(rise_delay=20n fall_delay=18n)
.ends
*
*
**********************
*SRC=74LS37;74LS37;TTL;74LSxx;2 input NAND gate
*SYM=NAND2
*74LS37 QUADRUPLE 2-INPUT POSITIVE-NAND BUFFERS
***
.subckt 74LS37 in1 in2 out
*FAMILY TTLin TTLin TTLout
*pinout N 1 2 3;4 5 6;9 10 8;12 13 11:VCC=14 GND=7
*pinout J 1 2 3;4 5 6;9 10 8;12 13 11:VCC=14 GND=7
*pinout D 1 2 3;4 5 6;9 10 8;12 13 11:VCC=14 GND=7
*pinout FN 2 3 4;6 8 9;13 14 12;18 19 16:VCC=20 GND=10
anor [in1 in2] outi ls_nand 
abuf outi out ls_buf
.model ls_nand d_nand
.model ls_buf d_buffer(rise_delay=12n fall_delay=12n)
.ends
*
*
**********************
*SRC=74LS38;74LS38;TTL;74LSxx;2 input NAND gate
*SYM=NAND2
*74LS38 QUADRUPLE 2-INPUT POSITIVE-NAND BUFFERS
*WITH OPEN-COLLECTOR OUTPUTS
***
.subckt 74LS38 in1 in2 out
*FAMILY TTLin TTLin TTLout
*pinout N 1 2 3;4 5 6;9 10 8;12 13 11:VCC=14 GND=7
*pinout J 1 2 3;4 5 6;9 10 8;12 13 11:VCC=14 GND=7
*pinout D 1 2 3;4 5 6;9 10 8;12 13 11:VCC=14 GND=7
*pinout FN 2 3 4;6 8 9;13 14 12;18 19 16:VCC=20 GND=10

anand [in1 in2] outi ls_nand 
abuf outi outj ls_buf
aopenc outj out ls_openc

.model ls_openc d_open_c
.model ls_nand d_nand
.model ls_buf d_buffer(rise_delay=20n fall_delay=18n)
.ends
*
*
**********************
*SRC=74LS42;74LS42;TTL;74LSxx;BCD/Decimal
*SYM=T7442A
*74LS42 DECODER BCD-DECIMAL 4-10 LINE
***
.subckt 74LS42 a b c d y0 y1 y2 y3 y4 y5 y6 y7 y8 y9
*FAMILY TTLin TTLin TTLin TTLin TTLout TTLout TTLout
+ TTLout TTLout TTLout TTLout TTLout TTLout TTLout
*pinout N 15 14 13 12 1 2 3 4 5 6 7 9 10 11:VCC=16 GND=8
*pinout J 15 14 13 12 1 2 3 4 5 6 7 9 10 11:VCC=16 GND=8
*pinout D 15 14 13 12 1 2 3 4 5 6 7 9 10 11:VCC=16 GND=8
*pinout FN 19 18 17 15 2 3 4 5 7 8 9 12 13 14:VCC=20 GND=10
ainv1 a ab inv
ainv2 b bb inv
ainv3 c cb inv
ainv4 d db inv

anand0 [db cb bb ab] y0 ls_nand
anand1 [db cb bb a] y1 ls_nand
anand2 [db cb b ab] y2 ls_nand
anand3 [db cb b a] y3 ls_nand
anand4 [db c bb ab] y4 ls_nand
anand5 [db c bb a] y5 ls_nand
anand6 [db c b ab] y6 ls_nand
anand7 [db c b a] y7 ls_nand
anand8 [d cb bb ab] y8 ls_nand
anand9 [d cb bb a] y9 ls_nand

.model inv d_inverter
.model ls_nand d_nand(rise_delay=15n fall_delay=20n)
.ends
*
*
**********************
*SRC=74LS51;74LS51;TTL;74LSxx;AND-OR-INVERT
*SYM=T74LS51
*74LS51 AND-OR-INVERT GATES 
***
.subckt 74LS51 1a 1b 1c 1d 1e 1f
+ 2a 2b 2c 2d 1y 2y
*FAMILY TTLin TTLin TTLin TTLin TTLin TTLin TTLin
+ TTLin TTLout TTLout
*pinout N 1 12 13 9 10 11 2 3 4 5 8 6:VCC=14 GND=7
*pinout J 1 12 13 9 10 11 2 3 4 5 8 6:VCC=14 GND=7
*pinout D 1 12 13 9 10 11 2 3 4 5 8 6:VCC=14 GND=7

aand1 [1a 1b 1c] x1 ls_and
aand2 [1d 1e 1f] x2 ls_and
anor1 [x1 x2] 1y ls_nor

aand3 [2a 2b] x3 ls_and
aand4 [2c 2d] x4 ls_and
anor2 [x3 x4] 2y ls_nor
.model ls_and d_and
.model ls_nor d_nor(rise_delay=12n fall_delay=12.5n)
.ends
*
*
**********************
*SRC=74LS54;74LS54;TTL;74LSxx;AND-OR-INVERT
*SYM=T7454
*74LS54 4-WIDE AND-OR-INVERT GATES 
***
.subckt 74LS54 a b c d e f g h i j y
*FAMILY TTLin TTLin TTLin TTLin TTLin TTLin TTLin
+ TTLin TTLin TTLin TTLout
*pinout N 1 2 3 4 5 9 10 11 12 13 6:VCC=14 GND=7
*pinout J 1 2 3 4 5 9 10 11 12 13 6:VCC=14 GND=7
*pinout D 1 2 3 4 5 9 10 11 12 13 6:VCC=14 GND=7
*pinout FN 2 3 4 6 8 13 14 16 18 19 9:VCC=20 GND=10

aand1 [a b] x1 ls_and
aand2 [c d e] x2 ls_and
aand3 [f g h] x3 ls_and
aand4 [i j] x4 ls_and

anor [x1 x2 x3 x4] y ls_nor
.model ls_and d_and
.model ls_nor d_nor(rise_delay=12n fall_delay=12.5n)
.ends
*
*
**********************
*SRC=74LS73A;74LS73A;TTL;74LSxx;J-K Flip-Flop
*SYM=T7473
*74LS73A DUAL J-K FLIP-FLOPS WITH CLEAR 
***
.subckt 74LS73A clk clrbar j k q qbar
*FAMILY  TTLin TTLin TTLin TTLin TTLout TTLout
*pinout N 1 2 14 3 12 13;5 6 7 10 9 8:VCC=4 GND=11
*pinout J 1 2 14 3 12 13;5 6 7 10 9 8:VCC=4 GND=11
*pinout D 1 2 14 3 12 13;5 6 7 10 9 8:VCC=4 GND=11

aone pre ls_pldwn
ainv clrbar clr ls_inv
ajk j k clk pre clr q qbar ls_jkff
.model ls_pldwn d_pulldown
.model ls_jkff d_jkff(clk_delay=1p rise_delay=15n 
+ fall_delay=15n)
.model ls_inv d_inverter
.ends
*
*
**********************
*SRC=74LS74A;74LS74A;TTL;74LSxx;D Flip-Flop
*SYM=T7474
*74LS74A DUAL D-TYPE POSITIVE-EDGE-TRIGGERED 
*FLIP-FLOPS WITH PRESET & CLEAR 
***
.subckt 74LS74A clrbar d clk prebar q qbar
*FAMILY  TTLin TTLin TTLin TTLin TTLout TTLout
*pinout N 1 2 3 4 5 6;13 12 11 10 9 8:VCC=14 GND=7
*pinout J 1 2 3 4 5 6;13 12 11 10 9 8:VCC=14 GND=7
*pinout D 1 2 3 4 5 6;13 12 11 10 9 8:VCC=14 GND=7
*pinout FN 2 3 4 6 8 9;19 18 16 14 13 12:VCC=20 GND=10
adff d clk prebar clrbar q qbar ls_dff

.model ls_dff d_dff(clk_delay=1p rise_delay=13n 
+ fall_delay=25n ic=1)
.ends
*
*
**********************CHECK THE SUBCKT PINOUT!!!!!
*SRC=74LS75;74LS75;TTL;74LSxx;4-bit latch
*SYM=T7475
*74LS75 4-BIT BISTABLE LATCHES (DUAL 2-BIT COMMON 
*CLOCK 4-BIT BISTABLE LATCHES)
***
.subckt 74LS75 1d 2d c 1q 1qbar 2q 2qbar
*FAMILY  TTLin TTLin TTLin TTLout TTLout TTLout TTLout
*pinout N 2 3 13 16 1 15 14;6 7 4 10 11 9 8:VCC=5 GND=12
*pinout J 2 3 13 16 1 15 14;6 7 4 10 11 9 8:VCC=5 GND=12
*pinout D 2 3 13 16 1 15 14;6 7 4 10 11 9 8:VCC=5 GND=12

adl1  1d c sr sr 1q 1qbar ls_dlatch
adl2  2d c sr sr 2q 2qbar ls_dlatch

azero1 sr pldwn

.model ls_dlatch d_dlatch(data_delay=1n 
+ enable_delay=1n
+ rise_delay=15n  fall_delay=9n)
.model pldwn d_pulldown
.ends
*
*
**********************
*SRC=74LS76A;74LS76A;TTL;74LSxx;J-K Flip-Flop
*SYM=T7476
*74LS76A DUAL J-K FLIP-FLOPS WITH PRESET & CLEAR 
***
.subckt 74LS76A clk prebar clrbar j k q qbar
*FAMILY  TTLin TTLin TTLin TTLin TTLin TTLout TTLout
*pinout N 1 2 3 4 16 15 14;6 7 8 9 12 11 10:VCC=5 GND=13
*pinout J 1 2 3 4 16 15 14;6 7 8 9 12 11 10:VCC=5 GND=13
*pinout D 1 2 3 4 16 15 14;6 7 8 9 12 11 10:VCC=5 GND=13

ainv1 prebar pre ls_inv
ainv2 clrbar clr ls_inv
ainv3 clk clkbar ls_inv
ajk j k clkbar pre clr q qbar ls_jkff

.model ls_jkff d_jkff(clk_delay=1p rise_delay=15n 
+ fall_delay=15n)
.model ls_inv d_inverter
.ends
*
*
**********************
*SRC=74LS85;74LS85;TTL;74LSxx;4-bit comparator 
*SYM=T7485
*74LS85 4-BIT MAGNITUDE COMPARATOR 
***
.subckt 74LS85 A3 A2 A1 A0 B3 B2 B1 B0
+ AGBIN AEBIN ALBIN AGBOUT AEBOUT ALBOUT
*FAMILY  TTLin TTLin TTLin TTLin TTLin TTLin TTLin
+ TTLin TTLin TTLin TTLin TTLout TTLout TTLout
*pinout N 15 13 12 10 1 14 11 9 4 3 2 5 6 7:VCC=16 GND=8
*pinout J 15 13 12 10 1 14 11 9 4 3 2 5 6 7:VCC=16 GND=8
*pinout D 15 13 12 10 1 14 11 9 4 3 2 5 6 7:VCC=16 GND=8
*pinout FN 19 17 15 13 2 18 14 12 5 4 3 7 8 9:VCC=20 GND=10

x1 a0 b0 albin aebin agbin l1 e1 g1 compar1
x2 a1 b1 l1 e1 g1 l2 e2 g2 compar1
x3 a2 b2 l2 e2 g2 l3 e3 g3 compar1
x4 a3 b3 l3 e3 g3 l4 e4 g4 compar1

abuf1 l4 albout ls_buf
abuf2 e4 aebout ls_buf
abuf3 g4 agbout ls_buf

.subckt compar1 a b lin ein gin lout eout gout
ainv1 a ab inv
ainv2 b bb inv
aand1 [ab b] l and
aand2 [a bb] g and
axnor [a b] e xnor

aand3 [e lin] xl and
aor1 [l xl] lout or
aand4 [ein e] eout and
aand5 [e gin] xg and
aor2 [g xg] gout or
.model and d_and
.model inv d_inverter
.model or d_or
.model xnor d_xnor
.ends compar1

.model ls_buf d_buffer(rise_delay=17n fall_delay=17n)

.ends
*
*
**********************
*SRC=74LS86A;74LS86A;TTL;74LSxx;2 input XOR
*SYM=XOR
*74LS86A QUADRUPLE 2-INPUT EXCLUSIVE-OR GATES
***
.subckt 74LS86A in1 in2 out
*FAMILY TTLin TTLin TTLout
*pinout N 1 2 3;4 5 6;9 10 8;12 13 11:VCC=14 GND=7
*pinout J 1 2 3;4 5 6;9 10 8;12 13 11:VCC=14 GND=7
*pinout D 1 2 3;4 5 6;9 10 8;12 13 11:VCC=14 GND=7
*pinout FN 2 3 4;6 8 9;13 14 12;18 19 16:VCC=20 GND=10
axor [in1 in2] out ls_xor 
.model ls_xor d_xor(rise_delay=12n fall_delay=10n)
.ends
*
*
**********************
*SRC=74LS92;74LS92;TTL;74LSxx;divide/12 counter
*SYM=T7492
*DIVIDE-BY-TWELVE COUNTER 12 4-BIT, ASYNCHRONOUS
***
.subckt 74LS92 clka clkb r01 r02 qa qb qc qd
*FAMILY TTLin TTLin TTLin TTLin TTLout
*pinout N 14 1 6 7 12 11 9 8:VCC=5 GND=10
*pinout J 14 1 6 7 12 11 9 8:VCC=5 GND=10
*pinout D 14 1 6 7 12 11 9 8:VCC=5 GND=10
ainv1 clka nclka inv
ainv2 clkb nclkb inv
aand [r01 r02] clr and
acount1 [low] nclka clr [iqa] ls_count1
acount6 [low] nclkb clr [iqb iqc iqd] ls_count6
alow low low

abuf1 iqa qa ls_bufa
abuf2 iqb qb ls_buf
abuf3 iqc qc ls_buf
abuf4 iqd qd ls_buf

.model low d_pulldown
.model ls_count1 d_state(state_file=count1.txt reset_delay=26n)
.model ls_count6 d_state(state_file=count6.txt reset_delay=26n
+ )
.model ls_bufa d_buffer(rise_delay=10n fall_delay=12n)
.model ls_buf d_buffer(rise_delay=21n fall_delay=23n)
.model inv d_inverter 
.model and d_and
.ends
*
*
**********************
*SRC=74LS93;74LS93;TTL;74LSxx;4 bit counter
*SYM=T7493
*74LS93 COUNTER BINARY 4-BIT, ASYNCHRONOUS
***
.subckt 74LS93 clka clkb r01 r02 qa qb qc qd
*FAMILY TTLin TTLin TTLin TTLin TTLout
*pinout N 14 1 2 3 12 11 9 8:VCC=5 GND=10
*pinout J 14 1 2 3 12 11 9 8:VCC=5 GND=10
*pinout D 14 1 2 3 12 11 9 8:VCC=5 GND=10
ainv1 clka nclka inv
ainv2 clkb nclkb inv
aand [r01 r02] clr and
acount1 [low] nclka clr [iqa] ls_count1
acount8 [low] nclkb clr [iqb iqc iqd] ls_count8
alow low low

abuf1 iqa qa ls_bufa
abuf2 iqb qb ls_buf
abuf3 iqc qc ls_buf
abuf4 iqd qd ls_buf

.model low d_pulldown
.model ls_count1 d_state(state_file=count1.txt reset_delay=26n)
.model ls_count8 d_state(state_file=count8.txt reset_delay=26n
+ )
.model ls_bufa d_buffer(rise_delay=10n fall_delay=12n)
.model ls_buf d_buffer(rise_delay=21n fall_delay=23n)
.model inv d_inverter 
.model and d_and
.ends
*
*
**********************
*SRC=74LS96;74LS96;TTL;74LSxx;5-bit shift register
*SYM=T7496
*74LS96 8-BIT PARALLEL-OUT SERIAL SHIFT REGISTERS
***
.subckt 74LS96 clrbar clk ser pre a b c d e
+ qa qb qc qd qe
*FAMILY TTLin TTLin TTLin TTLin TTLin TTLin
+ TTLin TTLin TTLin TTLOUT TTLout TTLout TTLout TTLout
*pinout N 16 1 9 8 2 3 4 6 7 15 14 13 11 10:VCC=5 GND=12
*pinout J 16 1 9 8 2 3 4 6 7 15 14 13 11 10:VCC=5 GND=12
*pinout D 16 1 9 8 2 3 4 6 7 15 14 13 11 10:VCC=5 GND=12
aand1 [pre a] pa and
aand2 [pre b] pb and
aand3 [pre c] pc and
aand4 [pre d] pd and
aand5 [pre e] pe and
ainv1 ser k inv
ainv2 clrbar clr inv

ajkff1 ser k clk pa clr qa qab ls_jkff
ajkff2 qa qab clk pb clr qb qbb ls_jkff
ajkff3 qb qbb clk pc clr qc qcb ls_jkff
ajkff4 qc qcb clk pd clr qd qdb ls_jkff
ajkff5 qd qdb clk pe clr qe qeb ls_jkff

.model ls_jkff d_jkff(clk_delay=25n set_delay=28n
+ reset_delay=28n)
.model inv d_inverter
.model and d_and
.ends
*
*
**********************
*SRC=74LS107A;74LS107A;TTL;74LSxx;J-K Flip-Flop
*SYM=T74107
*74LS107A DUAL J-K FLIP-FLOPS WITH CLEAR
***
.subckt 74LS107A clk clrbar j k q qbar
*FAMILY TTLin TTLin TTLin TTLin TTLout TTLout
*pinout N 12 13 1 4 3 2;9 10 8 11 5 6:VCC=14 GND=7
*pinout J 12 13 1 4 3 2;9 10 8 11 5 6:VCC=14 GND=7
*pinout D 12 13 1 4 3 2;9 10 8 11 5 6:VCC=14 GND=7
*pinout FN 18 19 2 6 4 3;13 14 12 16 8 9:VCC=20 GND=10
ajk j k clk pre clr q qbar ls_jkff
a0 pre ls_zero
ainv clrbar clr ls_inv

.model ls_jkff d_jkff(clk_delay=1p set_delay=1p
+ reset_delay=1p rise_delay=15n fall_delay=15n)
.model ls_zero d_pulldown
.model ls_inv d_inverter
.ends
*
*
**********************
*SRC=74LS109A;74LS109A;TTL;74LSxx;J-K Flip-Flop
*SYM=T74109
*74LS109A DUAL J-KBAR POSITIVE-EDGE-TRIGGERED FLIP-FLOPS
*WITH PRESET AND CLEAR
***
.subckt 74LS109a clk prebar clrbar j kbar q qbar
*FAMILY TTLin TTLin TTLin TTLin TTLin TTLout TTLout
*pinout N 4 5 1 2 3 6 7;12 11 15 14 13 10 9:VCC=16 GND=8
*pinout J 4 5 1 2 3 6 7;12 11 15 14 13 10 9:VCC=16 GND=8
*pinout D 4 5 1 2 3 6 7;12 11 15 14 13 10 9:VCC=16 GND=8
*pinout FN 5 7 2 3 4 8 9;15 14 19 18 17 13 12:VCC=20 GND=10

ajk j k clk pre clr q qbar ls_jkff
ainv1 prebar pre ls_inv
ainv2 clrbar clr ls_inv
ainv3 kbar k ls_inv

.model ls_jkff d_jkff(clk_delay=1p set_delay=1p
+ reset_delay=1p rise_delay=13n fall_delay=25n)
.model ls_inv d_inverter
.ends
*
*
**********************
*SRC=74LS122;74LS122;TTL;74LSxx;Monostable multivibrator
*SYM=T74122
*74LS122 RETRIGGERABLE MONOSTABLE MULTIVIBRATOR 
***
.subckt 74LS122 clrbar a1 a2 b1 b2 rint cext 
+ rext/cext q qbar
*FAMILY TTLin TTLin TTLin TTLin TTLin ANALOG ANALOG ANALOG
+ TTLout TTLout
*pinout N 5 1 2 3 4 9 11 13 8 6:VCC=14 GND=7
*pinout J 5 1 2 3 4 9 11 13 8 6:VCC=14 GND=7
*pinout D 5 1 2 3 4 9 11 13 8 6:VCC=14 GND=7
*pinout FN 8 2 3 4 6 13 16 19 12 9:VCC=20 GND=10
anand [a1 a2] a nand
aand [a b1 b2 clrbar] s and
abuf s clk buf
ainv clrbar clr inv
aor [clr r] rst or
adac  [q] [aq] ls_dac
rint rint rext/cext 10k
cint rext/cext 0 12.62f
aadc [rext/cext] [r] ls_adc
d1 rext/cext aq dmod
ajkff s l clk l rst q qbar ls_jkff
al l low

rshunt1 rint 0 100meg
rshunt2 cext 0 0.1


.model dmod d(rs=0.1 n=0.1)
.model nand d_nand
.model and d_and
.model or d_or
.model inv d_inverter
.model low d_pulldown
.model buf d_buffer
.model ls_dac dac_bridge(out_low=0.0 out_high=5)
.model ls_adc adc_bridge(in_low=2.51 in_high=2.49)
.model ls_jkff d_jkff(rise_delay=30n fall_delay=30n)

.ends
*
*
**********************
*SRC=74LS123;74LS123;TTL;74LSxx;Monostable multivibrator
*SYM=T74123
*74LS123 RETRIGGERABLE MONOSTABLE MULTIVIBRATOR 
***
.subckt 74LS123 clrbar a b cext rext/cext q qbar
*FAMILY TTLin TTLin TTLin ANALOG ANALOG
+ TTLout TTLout
*pinout N 3 1 2 14 15 13 4;11 9 10 6 7 5 12:VCC=16 GND=8
*pinout J 3 1 2 14 15 13 4;11 9 10 6 7 5 12:VCC=16 GND=8
*pinout D 3 1 2 14 15 13 4;11 9 10 6 7 5 12:VCC=16 GND=8
*pinout FN 4 2 3 18 19 17 5;14 12 13 8 9 7 15:VCC=20 GND=10
ainv1 a ab inv
aand [ab b clrbar] s and
abuf s clk buf
ainv2 clrbar clr inv
aor [clr r] rst or
adac  [q] [aq] ls_dac
cint rext/cext 0 12.62f
aadc [rext/cext] [r] ls_adc
d1 rext/cext aq dmod
ajkff s l clk l rst q qbar ls_jkff
al l low

rshunt cext 0 0.1


.model dmod d(rs=0.1 n=0.1)
.model and d_and
.model or d_or
.model inv d_inverter
.model low d_pulldown
.model buf d_buffer
.model ls_dac dac_bridge(out_low=0.0 out_high=5)
.model ls_adc adc_bridge(in_low=1.3 in_high=1.3)
.model ls_jkff d_jkff(rise_delay=30n fall_delay=30n)

.ends
*
*
**********************
*SRC=74LS125A;74LS125A;TTL;74LSxx;Bus buffer
*SYM=T74125
*74LS125A QUADRUPLE BUS BUFFER WITH 3-STATE OUTPUTS 
***
.subckt 74LS125A a gbar y
*FAMILY TTLin TTLin TTLout
*pinout N 2 1 3;5 4 6;9 10 8;12 13 11:VCC=14 GND=7
*pinout J 2 1 3;5 4 6;9 10 8;12 13 11:VCC=14 GND=7
*pinout D 2 1 3;5 4 6;9 10 8;12 13 11:VCC=14 GND=7
*pinout FN 3 2 4;8 6 9;13 14 12;18 19 16:VCC=20 GND=10
atri a g y ls_tri
ainv gbar g ls_inv

.model ls_tri d_tristate(delay=5n)
.model ls_inv d_inverter(rise_delay=9n fall_delay=7n)
.ends
*
*
**********************
*SRC=74LS126A;74LS126A;TTL;74LSxx;Bus buffer
*SYM=T74126
*74LS126A QUADRUPLE BUS BUFFER WITH 3-STATE OUTPUTS 
***
.subckt 74LS126A a g y
*FAMILY TTLin TTLin TTLout
*pinout N 2 1 3;5 4 6;9 10 8;12 13 11:VCC=14 GND=7
*pinout J 2 1 3;5 4 6;9 10 8;12 13 11:VCC=14 GND=7
*pinout D 2 1 3;5 4 6;9 10 8;12 13 11:VCC=14 GND=7
*pinout FN 3 2 4;8 6 9;13 14 12;18 19 16:VCC=20 GND=10
atri a gi y ls_tri
abuf g gi ls_buf

.model ls_tri d_tristate(delay=8n)
.model ls_buf d_buffer(rise_delay=9n fall_delay=8n)
.ends
*
*
**********************
*SRC=74LS132;74LS132;TTL;74LSxx;Nand Schmitt
*SYM=NAND2
*74LS132 QUADRUPLE 2-INPUT POSITIVE-NAND SCHMITT TRIGGER 
***
.subckt 74LS132 in1 in2 y
*FAMILY TTLin TTLin TTLout
*pinout N 1 2 3;4 5 6;9 10 8;12 13 11:VCC=14 GND=7
*pinout J 1 2 3;4 5 6;9 10 8;12 13 11:VCC=14 GND=7
*pinout D 1 2 3;4 5 6;9 10 8;12 13 11:VCC=14 GND=7
*pinout FN 2 3 4;6 8 9;13 14 12;18 19 16:VCC=20 GND=10
anand [a b] y ls_nand
aadc  [in1 in2] [a b] ls_adc

.model ls_adc adc_bridge(in_low=1.77 in_high=1.22)
.model ls_nand d_nand(rise_delay=10n fall_delay=10n)
.ends
*
*
**********************
*SRC=74LS136;74LS136;TTL;74LSxx;2 input XOR
*SYM=XOR
*74LS136 QUADRUPLE 2-INPUT EXCLUSIVE-OR GATES
*WITH OPEN COLLECTOR OUTPUTS 
***
.subckt 74LS136 a b out

axor [a b] outi ls_xor
aopenc outi out ls_openc
*FAMILY TTLin TTLin TTLout
*pinout N 1 2 3;4 5 6;9 10 8;12 13 11:VCC=14 GND=7
*pinout J 1 2 3;4 5 6;9 10 8;12 13 11:VCC=14 GND=7
*pinout D 1 2 3;4 5 6;9 10 8;12 13 11:VCC=14 GND=7
*pinout FN 2 3 4;6 8 9;13 14 12;18 19 16:VCC=20 GND=10
.model ls_openc d_open_c(open_delay=1p fall_delay=1p)
.model ls_xor d_xor(rise_delay=18n fall_delay=18n)
.ends
*
*
**********************
*SRC=74LS148;74LS148;TTL;74LSxx;Priority encoder
*SYM=T74148
*74LS148 PRIORITY ENCODER 8-3 LINE 
***
.subckt 74LS148 ei in0 in1 in2 in3 in4 in5 in6 in7
+ a0 a1 a2 gs eo
*FAMILY TTLin TTLin TTLin TTLin TTLin TTLin TTLin TTLin
+ TTLin TTLout TTLout TTLout TTLout TTLout
*pinout N 5 10 11 12 13 1 2 3 4 9 7 6 14 15:VCC=16 GND=8
*pinout J 5 10 11 12 13 1 2 3 4 9 7 6 14 15:VCC=16 GND=8
*pinout D 5 10 11 12 13 1 2 3 4 9 7 6 14 15:VCC=16 GND=8
*pinout FN 7 13 14 15 17 2 3 4 5 12 9 8 18 19:VCC=20 GND=10
ainv1 in0 i0 inv
ainv2 in1 i1 inv
ainv3 in2 i2 inv
ainv4 in3 i3 inv
ainv5 in4 i4 inv
ainv6 in5 i5 inv
ainv7 in6 i6 inv
ainv8 in7 i7 inv
ainv9 ei iei inv 
anand1 [in0 in1 in2 in3 in4 in5 in6 in7] eo ls_nand1
anand2 [eo iei] gs ls_nand2

aand1 [i1 in2 in4 in6 iei] 1a and
aand2 [i3 in4 in6 iei] 1b and
aand3 [i5 in6 iei] 1c and
aand4 [i7 iei] 1d and
aand5 [i2 in4 in5 iei] 2a and
aand6 [i3 in4 in5 iei] 2b and
aand7 [i6 iei] 2c and
aand8 [i7 iei] 2d and
aand9 [i4 iei] 3a and
aanda [i5 iei] 3b and
aandb [i6 iei] 3c and
aandc [i7 iei] 3d and

anor1 [1a 1b 1c 1d] a0 ls_nor
anor2 [2a 2b 2c 2d] a1 ls_nor
anor3 [3a 3b 3c 3d] a2 ls_nor

.model ls_nor d_nor(rise_delay=13n fall_delay=12n)
.model ls_nand1 d_nand(rise_delay=18n fall_delay=17n)
.model ls_nand2 d_nand
.model and d_and
.model inv d_inverter

.ends
*
*
**********************
*SRC=74LS151;74LS151;TTL;74LSxx;Multiplexer
*SYM=T74151A
*74LS151 MULTIPLEXER/DATA SELECTOR 8-1 LINE 
***
.subckt 74LS151 ebar s0 s1 s2 i0 i1 i2 i3 i4
+ i5 i6 i7 z zbar
*FAMILY TTLin TTLin TTLin TTLin TTLin TTLin TTLin TTLin TTLin
+ TTLin TTLin TTLin TTLout TTLout
*pinout N 7 11 10 9 4 3 2 1 15 14 13 12 5 6:VCC=16 GND=8
*pinout J 7 11 10 9 4 3 2 1 15 14 13 12 5 6:VCC=16 GND=8
*pinout D 7 11 10 9 4 3 2 1 15 14 13 12 5 6:VCC=16 GND=8
*pinout FN 9 14 13 12 5 4 3 2 19 18 17 15 7 8:VCC=20 GND=10

x1 i0 i1 s0 a1 mux2-1
x2 i2 i3 s0 a2 mux2-1
x3 i4 i5 s0 a3 mux2-1
x4 i6 i7 s0 a4 mux2-1
x5 a1 a2 s1 b1 mux2-1
x6 a3 a4 s1 b2 mux2-1
x7 b1 b2 s2 y mux2-1

ainv1 ebar e ls_inva
ainv2 y yb ls_inv
atri1 y e z ls_tri
atri2 yb e zbar ls_tri

.subckt mux2-1 a b c y
ainv c cb inv
aand1 [a cb] p1 and
aand2 [b c] p2 and
aor [p1 p2] y or
.model and d_and
.model or d_or
.model inv d_inverter
.ends mux2-1

.model ls_inva d_inverter(rise_delay=1n fall_delay=1n)
.model ls_inv d_inverter
.model ls_tri d_tristate(delay=20n)

.ends
*
*
**********************
*SRC=74LS153;74LS153;TTL;74LSxx;Multiplexer
*SYM=T74153
*74LS153 DUAL 4-LINE TO 1-LINE DATA SELECTORS/MULTIPLEXERS 
***
.subckt 74LS153 eabar ebbar s0 s1 i0a i1a i2a i3a
+ i0b i1b i2b i3b za zb
*FAMILY TTLin TTLin TTLin TTLin TTLin TTLin TTLin TTLin 
+ TTLin TTLin TTLin TTLin TTLout TTLout
*pinout N 1 15 14 2 6 5 4 3 10 11 12 13 7 9:VCC=16 GND=8
*pinout J 1 15 14 2 6 5 4 3 10 11 12 13 7 9:VCC=16 GND=8
*pinout D 1 15 14 2 6 5 4 3 10 11 12 13 7 9:VCC=16 GND=8
*pinout FN 2 19 18 3 8 7 5 4 13 14 15 17 9 12:VCC=20 GND=10

x1 i0a i1a s0 a1 mux2-1
x2 i2a i3a s0 a2 mux2-1
x3 a1 a2 s1 ya mux2-1

x4 i0b i1b s0 b1 mux2-1
x5 i2b i3b s0 b2 mux2-1
x6 b1 b2 s1 yb mux2-1

ainv1 eabar ea ls_inva
ainv2 ebbar eb ls_inva
atri1 ya ea z ls_tri
atri2 yb eb zb ls_tri

.subckt mux2-1 a b c y
ainv c cb inv
aand1 [a cb] p1 and
aand2 [b c] p2 and
aor [p1 p2] y or
.model and d_and
.model or d_or
.model inv d_inverter
.ends mux2-1

.model ls_inva d_inverter(rise_delay=1n fall_delay=1n)

.model ls_tri d_tristate(delay=18n)

.ends
*
*
**********************
*SRC=74LS155A;74LS155A;TTL;74LSxx;Demultiplexer
*SYM=T74155
*74LS155A DECODER/MULTIPLEXER 2-4 LINE 
***
.subckt 74LS155A ia ib 1gb 2gb 1c 2cb 1y0 1y1 1y2 1y3
+ 2y0 2y1 2y2 2y3
*FAMILY TTLin TTLin TTLin TTLin TTLin TTLin TTLout
+ TTLout TTLout TTLout TTLout TTLout TTLout TTLout
*pinout N 13 3 2 14 1 15 7 6 5 4 9 10 11 12:VCC=16 GND=8
*pinout J 13 3 2 14 1 15 7 6 5 4 9 10 11 12:VCC=16 GND=8
*pinout D 13 3 2 14 1 15 7 6 5 4 9 10 11 12:VCC=16 GND=8
*pinout FN 17 4 3 18 2 19 9 8 7 5 12 13 14 15:VCC=20 GND=10
ainv0 1c 1cb inv
anor1 [g1b 1cb] g nor
abuf1 ia a buf
abuf2 ib b buf

ainv1 ia ab inv
ainv2 ib bb inv

anand1 [ab bb g] 1y0 ls_nand