**************************************************
* Manufacturer:       Wurth Elektronik 
* Kinds:     MLCC NP0 Capacitor
* Matchcode:          WCAP-CSGP
* Library Type:       LT-spice
* Version:        rev19b
* Created/modified by:    Fredo       
* Date and Time   :7/12/2019
* Team:           eiSos EDA Service  
* Contact:        libraries@we-online.com
**************************************************
.subckt 885012005007_10pF 1 2
Rser 1 3 0.494547705824
Lser 2 4 3.67389142E-10
C 3 4 0.00000000001
Rpar 3 4 10000000000
.ends 885012005007_10pF
*****
.subckt 885012005008_15pF 1 2
Rser 1 3 0.388190780491
Lser 2 4 3.17307789E-10
C 3 4 0.000000000015
Rpar 3 4 10000000000
.ends 885012005008_15pF
*****
.subckt 885012005009_22pF 1 2
Rser 1 3 0.316230222598
Lser 2 4 2.88077478E-10
C 3 4 0.000000000022
Rpar 3 4 10000000000
.ends 885012005009_22pF
*****
.subckt 885012005010_33pF 1 2
Rser 1 3 0.249324470259
Lser 2 4 2.84730223E-10
C 3 4 0.000000000033
Rpar 3 4 10000000000
.ends 885012005010_33pF
*****
.subckt 885012005011_47pF 1 2
Rser 1 3 0.235686289563
Lser 2 4 2.78272514E-10
C 3 4 0.000000000047
Rpar 3 4 10000000000
.ends 885012005011_47pF
*****
.subckt 885012005012_68pF 1 2
Rser 1 3 0.188011183755
Lser 2 4 2.62979806E-10
C 3 4 0.000000000068
Rpar 3 4 10000000000
.ends 885012005012_68pF
*****
.subckt 885012005013_0.1nF 1 2
Rser 1 3 0.145490051878
Lser 2 4 2.5124412E-10
C 3 4 0.0000000001
Rpar 3 4 10000000000
.ends 885012005013_0.1nF
*****
.subckt 885012005014_0.15nF 1 2
Rser 1 3 0.102893245885
Lser 2 4 2.1894381E-10
C 3 4 0.00000000015
Rpar 3 4 10000000000
.ends 885012005014_0.15nF
*****
.subckt 885012005015_0.22nF 1 2
Rser 1 3 0.0932691679838
Lser 2 4 1.50271806E-10
C 3 4 0.00000000022
Rpar 3 4 10000000000
.ends 885012005015_0.22nF
*****
.subckt 885012005016_0.33nF 1 2
Rser 1 3 0.0893241489871
Lser 2 4 3.29295953E-10
C 3 4 0.00000000033
Rpar 3 4 10000000000
.ends 885012005016_0.33nF
*****
.subckt 885012005017_0.47nF 1 2
Rser 1 3 0.0149178531097
Lser 2 4 3.26241368E-10
C 3 4 0.00000000047
Rpar 3 4 10000000000
.ends 885012005017_0.47nF
*****
.subckt 885012005018_1nF 1 2
Rser 1 3 0.0157004412396
Lser 2 4 3.37941862E-10
C 3 4 0.000000001
Rpar 3 4 10000000000
.ends 885012005018_1nF
*****
.subckt 885012005021_2.2pF 1 2
Rser 1 3 0.37427104318
Lser 2 4 2.39727122E-10
C 3 4 0.0000000000022
Rpar 3 4 10000000000
.ends 885012005021_2.2pF
*****
.subckt 885012005022_3.3pF 1 2
Rser 1 3 0.394048440694
Lser 2 4 2.60787564E-10
C 3 4 0.0000000000033
Rpar 3 4 10000000000
.ends 885012005022_3.3pF
*****
.subckt 885012005023_4.7pF 1 2
Rser 1 3 0.475944818481
Lser 2 4 2.97209578E-10
C 3 4 0.0000000000047
Rpar 3 4 10000000000
.ends 885012005023_4.7pF
*****
.subckt 885012005024_6.8pF 1 2
Rser 1 3 0.357812051681
Lser 2 4 2.43515953E-10
C 3 4 0.0000000000068
Rpar 3 4 10000000000
.ends 885012005024_6.8pF
*****
.subckt 885012005025_10pF 1 2
Rser 1 3 0.486385754904
Lser 2 4 3.42455186E-10
C 3 4 0.00000000001
Rpar 3 4 10000000000
.ends 885012005025_10pF
*****
.subckt 885012005026_15pF 1 2
Rser 1 3 0.385031326079
Lser 2 4 3.02592165E-10
C 3 4 0.000000000015
Rpar 3 4 10000000000
.ends 885012005026_15pF
*****
.subckt 885012005027_22pF 1 2
Rser 1 3 0.304814718575
Lser 2 4 3.0242914E-10
C 3 4 0.000000000022
Rpar 3 4 10000000000
.ends 885012005027_22pF
*****
.subckt 885012005028_33pF 1 2
Rser 1 3 0.244839252069
Lser 2 4 2.43449082E-10
C 3 4 0.000000000033
Rpar 3 4 10000000000
.ends 885012005028_33pF
*****
.subckt 885012005029_47pF 1 2
Rser 1 3 0.199232330322
Lser 2 4 2.79396057E-10
C 3 4 0.000000000047
Rpar 3 4 10000000000
.ends 885012005029_47pF
*****
.subckt 885012005030_68pF 1 2
Rser 1 3 0.183246570883
Lser 2 4 2.43281747E-10
C 3 4 0.000000000068
Rpar 3 4 10000000000
.ends 885012005030_68pF
*****
.subckt 885012005031_0.1nF 1 2
Rser 1 3 0.125698815083
Lser 2 4 2.36883012E-10
C 3 4 0.0000000001
Rpar 3 4 10000000000
.ends 885012005031_0.1nF
*****
.subckt 885012005032_0.15nF 1 2
Rser 1 3 0.0914737764723
Lser 2 4 2.04884984E-10
C 3 4 0.00000000015
Rpar 3 4 10000000000
.ends 885012005032_0.15nF
*****
.subckt 885012005033_0.22nF 1 2
Rser 1 3 0.0784599744138
Lser 2 4 2.05801081E-10
C 3 4 0.00000000022
Rpar 3 4 10000000000
.ends 885012005033_0.22nF
*****
.subckt 885012005040_10pF 1 2
Rser 1 3 0.467848447943
Lser 2 4 3.77046381E-10
C 3 4 0.00000000001
Rpar 3 4 10000000000
.ends 885012005040_10pF
*****
.subckt 885012005041_15pF 1 2
Rser 1 3 0.34552139712
Lser 2 4 3.31461104E-10
C 3 4 0.000000000015
Rpar 3 4 10000000000
.ends 885012005041_15pF
*****
.subckt 885012005042_22pF 1 2
Rser 1 3 0.285282706764
Lser 2 4 3.08207076E-10
C 3 4 0.000000000022
Rpar 3 4 10000000000
.ends 885012005042_22pF
*****
.subckt 885012005043_33pF 1 2
Rser 1 3 0.230231956882
Lser 2 4 2.96875149E-10
C 3 4 0.000000000033
Rpar 3 4 10000000000
.ends 885012005043_33pF
*****
.subckt 885012005044_47pF 1 2
Rser 1 3 0.203455175683
Lser 2 4 3.46537476E-10
C 3 4 0.000000000047
Rpar 3 4 10000000000
.ends 885012005044_47pF
*****
.subckt 885012005045_68pF 1 2
Rser 1 3 0.18781473697
Lser 2 4 3.22027908E-10
C 3 4 0.000000000068
Rpar 3 4 10000000000
.ends 885012005045_68pF
*****
.subckt 885012005046_0.1nF 1 2
Rser 1 3 0.0759217345208
Lser 2 4 3.94922966E-10
C 3 4 0.0000000001
Rpar 3 4 10000000000
.ends 885012005046_0.1nF
*****
.subckt 885012005047_0.15nF 1 2
Rser 1 3 0.112246046138
Lser 2 4 2.15549473E-10
C 3 4 0.00000000015
Rpar 3 4 10000000000
.ends 885012005047_0.15nF
*****
.subckt 885012005048_0.22nF 1 2
Rser 1 3 0.104232515193
Lser 2 4 1.92172989E-10
C 3 4 0.00000000022
Rpar 3 4 10000000000
.ends 885012005048_0.22nF
*****
.subckt 885012005049_1pF 1 2
Rser 1 3 0.372412566115
Lser 2 4 3.42487064E-10
C 3 4 0.000000000001
Rpar 3 4 10000000000
.ends 885012005049_1pF
*****
.subckt 885012005050_1.5pF 1 2
Rser 1 3 0.262794296584
Lser 2 4 3.57764917E-10
C 3 4 0.0000000000015
Rpar 3 4 10000000000
.ends 885012005050_1.5pF
*****
.subckt 885012005051_2.2pF 1 2
Rser 1 3 0.373107051593
Lser 2 4 3.52926651E-10
C 3 4 0.0000000000022
Rpar 3 4 10000000000
.ends 885012005051_2.2pF
*****
.subckt 885012005052_3.3pF 1 2
Rser 1 3 0.371592714575
Lser 2 4 3.85528579E-10
C 3 4 0.0000000000033
Rpar 3 4 10000000000
.ends 885012005052_3.3pF
*****
.subckt 885012005053_4.7pF 1 2
Rser 1 3 0.443688812845
Lser 2 4 4.55408482E-10
C 3 4 0.0000000000047
Rpar 3 4 10000000000
.ends 885012005053_4.7pF
*****
.subckt 885012005054_6.8pF 1 2
Rser 1 3 0.397780736645
Lser 2 4 4.18761945E-10
C 3 4 0.0000000000068
Rpar 3 4 10000000000
.ends 885012005054_6.8pF
*****
.subckt 885012005055_10pF 1 2
Rser 1 3 0.367986500147
Lser 2 4 4.54592782E-10
C 3 4 0.00000000001
Rpar 3 4 10000000000
.ends 885012005055_10pF
*****
.subckt 885012005056_15pF 1 2
Rser 1 3 0.289002377009
Lser 2 4 4.35524241E-10
C 3 4 0.000000000015
Rpar 3 4 10000000000
.ends 885012005056_15pF
*****
.subckt 885012005057_22pF 1 2
Rser 1 3 0.1946461244
Lser 2 4 4.43759844E-10
C 3 4 0.000000000022
Rpar 3 4 10000000000
.ends 885012005057_22pF
*****
.subckt 885012005058_33pF 1 2
Rser 1 3 0.125165063018
Lser 2 4 4.11479308E-10
C 3 4 0.000000000033
Rpar 3 4 10000000000
.ends 885012005058_33pF
*****
.subckt 885012005059_47pF 1 2
Rser 1 3 0.136483462277
Lser 2 4 4.44322285E-10
C 3 4 0.000000000047
Rpar 3 4 10000000000
.ends 885012005059_47pF
*****
.subckt 885012005060_68pF 1 2
Rser 1 3 0.101411214779
Lser 2 4 4.24748886E-10
C 3 4 0.000000000068
Rpar 3 4 10000000000
.ends 885012005060_68pF
*****
.subckt 885012005061_0.1nF 1 2
Rser 1 3 0.0708016190464
Lser 2 4 3.72654022E-10
C 3 4 0.0000000001
Rpar 3 4 10000000000
.ends 885012005061_0.1nF
*****
.subckt 885012005062_0.15nF 1 2
Rser 1 3 0.043551770519
Lser 2 4 3.72165147E-10
C 3 4 0.00000000015
Rpar 3 4 10000000000
.ends 885012005062_0.15nF
*****
.subckt 885012005063_0.22nF 1 2
Rser 1 3 0.0328677075671
Lser 2 4 3.55619232E-10
C 3 4 0.00000000022
Rpar 3 4 10000000000
.ends 885012005063_0.22nF
*****
.subckt 885012005074_10pF 1 2
Rser 1 3 0.421651463477
Lser 2 4 4.14790783E-10
C 3 4 0.00000000001
Rpar 3 4 10000000000
.ends 885012005074_10pF
*****
.subckt 885012005077_33pF 1 2
Rser 1 3 0.221604982314
Lser 2 4 3.49022204E-10
C 3 4 0.000000000033
Rpar 3 4 10000000000
.ends 885012005077_33pF
*****
.subckt 885012005078_47pF 1 2
Rser 1 3 0.24210526915
Lser 2 4 4.45579658E-10
C 3 4 0.000000000047
Rpar 3 4 10000000000
.ends 885012005078_47pF
*****
.subckt 885012005079_68pF 1 2
Rser 1 3 0.204212177962
Lser 2 4 3.70169713E-10
C 3 4 0.000000000068
Rpar 3 4 10000000000
.ends 885012005079_68pF
*****
.subckt 885012005080_0.1nF 1 2
Rser 1 3 0.117553952575
Lser 2 4 3.96667338E-10
C 3 4 0.0000000001
Rpar 3 4 10000000000
.ends 885012005080_0.1nF
*****
.subckt 885012005085_8.2pF 1 2
Rser 1 3 0.352598551895
Lser 2 4 4.16869039E-10
C 3 4 0.0000000000082
Rpar 3 4 10000000000
.ends 885012005085_8.2pF
*****
.subckt 885012006001_4.7pF 1 2
Rser 1 3 0.307143942354
Lser 2 4 3.18870536E-10
C 3 4 0.0000000000047
Rpar 3 4 10000000000
.ends 885012006001_4.7pF
*****
.subckt 885012006002_10pF 1 2
Rser 1 3 0.432635508029
Lser 2 4 4.35474271E-10
C 3 4 0.00000000001
Rpar 3 4 10000000000
.ends 885012006002_10pF
*****
.subckt 885012006003_15pF 1 2
Rser 1 3 0.318625808147
Lser 2 4 7.07424269E-10
C 3 4 0.000000000015
Rpar 3 4 10000000000
.ends 885012006003_15pF
*****
.subckt 885012006004_22pF 1 2
Rser 1 3 0.34819611654
Lser 2 4 7.75018519E-10
C 3 4 0.000000000022
Rpar 3 4 10000000000
.ends 885012006004_22pF
*****
.subckt 885012006005_33pF 1 2
Rser 1 3 0.266845513997
Lser 2 4 8.03723788E-10
C 3 4 0.000000000033
Rpar 3 4 10000000000
.ends 885012006005_33pF
*****
.subckt 885012006006_47pF 1 2
Rser 1 3 0.196782783005
Lser 2 4 7.59426691E-10
C 3 4 0.000000000047
Rpar 3 4 10000000000
.ends 885012006006_47pF
*****
.subckt 885012006007_68pF 1 2
Rser 1 3 0.153641735222
Lser 2 4 7.22489136E-10
C 3 4 0.000000000068
Rpar 3 4 10000000000
.ends 885012006007_68pF
*****
.subckt 885012006008_0.1nF 1 2
Rser 1 3 0.110129832129
Lser 2 4 6.73785263E-10
C 3 4 0.0000000001
Rpar 3 4 10000000000
.ends 885012006008_0.1nF
*****
.subckt 885012006009_0.15nF 1 2
Rser 1 3 0.0793891689318
Lser 2 4 6.22415559E-10
C 3 4 0.00000000015
Rpar 3 4 10000000000
.ends 885012006009_0.15nF
*****
.subckt 885012006010_0.22nF 1 2
Rser 1 3 0.088220302088
Lser 2 4 6.95492511E-10
C 3 4 0.00000000022
Rpar 3 4 10000000000
.ends 885012006010_0.22nF
*****
.subckt 885012006011_0.33nF 1 2
Rser 1 3 0.0993151086205
Lser 2 4 4.18653134E-10
C 3 4 0.00000000033
Rpar 3 4 10000000000
.ends 885012006011_0.33nF
*****
.subckt 885012006012_0.47nF 1 2
Rser 1 3 0.0757443435992
Lser 2 4 3.66481782E-10
C 3 4 0.00000000047
Rpar 3 4 10000000000
.ends 885012006012_0.47nF
*****
.subckt 885012006013_0.68nF 1 2
Rser 1 3 0.0602766942369
Lser 2 4 3.26882078E-10
C 3 4 0.00000000068
Rpar 3 4 10000000000
.ends 885012006013_0.68nF
*****
.subckt 885012006014_1nF 1 2
Rser 1 3 0.0434067925003
Lser 2 4 4.09321859E-10
C 3 4 0.000000001
Rpar 3 4 10000000000
.ends 885012006014_1nF
*****
.subckt 885012006015_2.2nF 1 2
Rser 1 3 0.0307077888885
Lser 2 4 3.39702907E-10
C 3 4 0.0000000022
Rpar 3 4 10000000000
.ends 885012006015_2.2nF
*****
.subckt 885012006016_3.3nF 1 2
Rser 1 3 0.0275317919224
Lser 2 4 3.37901927E-10
C 3 4 0.0000000033
Rpar 3 4 10000000000
.ends 885012006016_3.3nF
*****
.subckt 885012006017_10pF 1 2
Rser 1 3 0.4238423835
Lser 2 4 6.15454653E-10
C 3 4 0.00000000001
Rpar 3 4 10000000000
.ends 885012006017_10pF
*****
.subckt 885012006018_15pF 1 2
Rser 1 3 0.331903216145
Lser 2 4 4.69540847E-10
C 3 4 0.000000000015
Rpar 3 4 10000000000
.ends 885012006018_15pF
*****
.subckt 885012006019_22pF 1 2
Rser 1 3 0.348201721723
Lser 2 4 5.50963961E-10
C 3 4 0.000000000022
Rpar 3 4 10000000000
.ends 885012006019_22pF
*****
.subckt 885012006020_33pF 1 2
Rser 1 3 0.337785757957
Lser 2 4 7.34244223E-10
C 3 4 0.000000000033
Rpar 3 4 10000000000
.ends 885012006020_33pF
*****
.subckt 885012006021_47pF 1 2
Rser 1 3 0.256261040981
Lser 2 4 6.94150338E-10
C 3 4 0.000000000047
Rpar 3 4 10000000000
.ends 885012006021_47pF
*****
.subckt 885012006022_68pF 1 2
Rser 1 3 0.161913740901
Lser 2 4 6.38999674E-10
C 3 4 0.000000000068
Rpar 3 4 10000000000
.ends 885012006022_68pF
*****
.subckt 885012006023_0.1nF 1 2
Rser 1 3 0.123459009657
Lser 2 4 6.00573816E-10
C 3 4 0.0000000001
Rpar 3 4 10000000000
.ends 885012006023_0.1nF
*****
.subckt 885012006024_0.15nF 1 2
Rser 1 3 0.110788543459
Lser 2 4 5.59777275E-10
C 3 4 0.00000000015
Rpar 3 4 10000000000
.ends 885012006024_0.15nF
*****
.subckt 885012006025_0.22nF 1 2
Rser 1 3 0.0988385216426
Lser 2 4 5.64504761E-10
C 3 4 0.00000000022
Rpar 3 4 10000000000
.ends 885012006025_0.22nF
*****
.subckt 885012006026_0.33nF 1 2
Rser 1 3 0.0877208643899
Lser 2 4 5.53240043E-10
C 3 4 0.00000000033
Rpar 3 4 10000000000
.ends 885012006026_0.33nF
*****
.subckt 885012006027_0.47nF 1 2
Rser 1 3 0.0602974058901
Lser 2 4 5.48330767E-10
C 3 4 0.00000000047
Rpar 3 4 10000000000
.ends 885012006027_0.47nF
*****
.subckt 885012006028_0.68nF 1 2
Rser 1 3 0.0523826835624
Lser 2 4 5.05789539E-10
C 3 4 0.00000000068
Rpar 3 4 10000000000
.ends 885012006028_0.68nF
*****
.subckt 885012006029_1nF 1 2
Rser 1 3 0.0440182000352
Lser 2 4 4.19702079E-10
C 3 4 0.000000001
Rpar 3 4 10000000000
.ends 885012006029_1nF
*****
.subckt 885012006030_4.7pF 1 2
Rser 1 3 0.29124727578
Lser 2 4 4.29705418E-10
C 3 4 0.0000000000047
Rpar 3 4 10000000000
.ends 885012006030_4.7pF
*****
.subckt 885012006031_6.8pF 1 2
Rser 1 3 0.299024437013
Lser 2 4 4.5809474E-10
C 3 4 0.0000000000068
Rpar 3 4 10000000000
.ends 885012006031_6.8pF
*****
.subckt 885012006032_10pF 1 2
Rser 1 3 0.445774201336
Lser 2 4 4.28073844E-10
C 3 4 0.00000000001
Rpar 3 4 10000000000
.ends 885012006032_10pF
*****
.subckt 885012006033_15pF 1 2
Rser 1 3 0.353119905486
Lser 2 4 4.35266975E-10
C 3 4 0.000000000015
Rpar 3 4 10000000000
.ends 885012006033_15pF
*****
.subckt 885012006034_22pF 1 2
Rser 1 3 0.352481322316
Lser 2 4 5.8820344E-10
C 3 4 0.000000000022
Rpar 3 4 10000000000
.ends 885012006034_22pF
*****
.subckt 885012006035_33pF 1 2
Rser 1 3 0.305919966941
Lser 2 4 5.25713034E-10
C 3 4 0.000000000033
Rpar 3 4 10000000000
.ends 885012006035_33pF
*****
.subckt 885012006036_47pF 1 2
Rser 1 3 0.062255914612
Lser 2 4 4.24328623E-10
C 3 4 0.000000000047
Rpar 3 4 10000000000
.ends 885012006036_47pF
*****
.subckt 885012006037_68pF 1 2
Rser 1 3 0.159672910297
Lser 2 4 6.46220787E-10
C 3 4 0.000000000068
Rpar 3 4 10000000000
.ends 885012006037_68pF
*****
.subckt 885012006038_0.1nF 1 2
Rser 1 3 0.130130495234
Lser 2 4 5.8979323E-10
C 3 4 0.0000000001
Rpar 3 4 10000000000
.ends 885012006038_0.1nF
*****
.subckt 885012006039_0.15nF 1 2
Rser 1 3 0.097154893647
Lser 2 4 5.82598828E-10
C 3 4 0.00000000015
Rpar 3 4 10000000000
.ends 885012006039_0.15nF
*****
.subckt 885012006040_0.22nF 1 2
Rser 1 3 0.111748485631
Lser 2 4 6.02628009E-10
C 3 4 0.00000000022
Rpar 3 4 10000000000
.ends 885012006040_0.22nF
*****
.subckt 885012006041_0.33nF 1 2
Rser 1 3 0.0829140919635
Lser 2 4 3.85173897E-10
C 3 4 0.00000000033
Rpar 3 4 10000000000
.ends 885012006041_0.33nF
*****
.subckt 885012006042_0.47nF 1 2
Rser 1 3 0.0647178553788
Lser 2 4 3.67931779E-10
C 3 4 0.00000000047
Rpar 3 4 10000000000
.ends 885012006042_0.47nF
*****
.subckt 885012006043_0.68nF 1 2
Rser 1 3 0.0641029132415
Lser 2 4 3.05763584E-10
C 3 4 0.00000000068
Rpar 3 4 10000000000
.ends 885012006043_0.68nF
*****
.subckt 885012006044_1nF 1 2
Rser 1 3 0.0419451701409
Lser 2 4 4.48170961E-10
C 3 4 0.000000001
Rpar 3 4 10000000000
.ends 885012006044_1nF
*****
.subckt 885012006048_3.3pF 1 2
Rser 1 3 0.351777802818
Lser 2 4 4.93521689E-10
C 3 4 0.0000000000033
Rpar 3 4 10000000000
.ends 885012006048_3.3pF
*****
.subckt 885012006049_4.7pF 1 2
Rser 1 3 0.314951809581
Lser 2 4 4.34213899E-10
C 3 4 0.0000000000047
Rpar 3 4 10000000000
.ends 885012006049_4.7pF
*****
.subckt 885012006050_6.8pF 1 2
Rser 1 3 0.318409306034
Lser 2 4 5.32075515E-10
C 3 4 0.0000000000068
Rpar 3 4 10000000000
.ends 885012006050_6.8pF
*****
.subckt 885012006051_10pF 1 2
Rser 1 3 0.423568844547
Lser 2 4 6.08699424E-10
C 3 4 0.00000000001
Rpar 3 4 10000000000
.ends 885012006051_10pF
*****
.subckt 885012006052_15pF 1 2
Rser 1 3 0.396040749585
Lser 2 4 6.08298711E-10
C 3 4 0.000000000015
Rpar 3 4 10000000000
.ends 885012006052_15pF
*****
.subckt 885012006053_22pF 1 2
Rser 1 3 0.388744823765
Lser 2 4 6.9588017E-10
C 3 4 0.000000000022
Rpar 3 4 10000000000
.ends 885012006053_22pF
*****
.subckt 885012006054_33pF 1 2
Rser 1 3 0.321193198235
Lser 2 4 7.31689517E-10
C 3 4 0.000000000033
Rpar 3 4 10000000000
.ends 885012006054_33pF
*****
.subckt 885012006055_47pF 1 2
Rser 1 3 0.290935011258
Lser 2 4 4.02698987E-10
C 3 4 0.000000000047
Rpar 3 4 10000000000
.ends 885012006055_47pF
*****
.subckt 885012006056_68pF 1 2
Rser 1 3 0.190199312239
Lser 2 4 6.75111985E-10
C 3 4 0.000000000068
Rpar 3 4 10000000000
.ends 885012006056_68pF
*****
.subckt 885012006057_0.1nF 1 2
Rser 1 3 0.155626039874
Lser 2 4 4.37579661E-10
C 3 4 0.0000000001
Rpar 3 4 10000000000
.ends 885012006057_0.1nF
*****
.subckt 885012006058_0.15nF 1 2
Rser 1 3 0.117171082106
Lser 2 4 5.86950362E-10
C 3 4 0.00000000015
Rpar 3 4 10000000000
.ends 885012006058_0.15nF
*****
.subckt 885012006059_0.22nF 1 2
Rser 1 3 0.120673949599
Lser 2 4 6.11171216E-10
C 3 4 0.00000000022
Rpar 3 4 10000000000
.ends 885012006059_0.22nF
*****
.subckt 885012006060_0.33nF 1 2
Rser 1 3 0.0984499950001
Lser 2 4 5.75039775E-10
C 3 4 0.00000000033
Rpar 3 4 10000000000
.ends 885012006060_0.33nF
*****
.subckt 885012006061_0.47nF 1 2
Rser 1 3 0.0701665420081
Lser 2 4 5.55279727E-10
C 3 4 0.00000000047
Rpar 3 4 10000000000
.ends 885012006061_0.47nF
*****
.subckt 885012006062_0.68nF 1 2
Rser 1 3 0.058780576404
Lser 2 4 5.07120306E-10
C 3 4 0.00000000068
Rpar 3 4 10000000000
.ends 885012006062_0.68nF
*****
.subckt 885012006063_1nF 1 2
Rser 1 3 0.040317449025
Lser 2 4 4.45418718E-10
C 3 4 0.000000001
Rpar 3 4 10000000000
.ends 885012006063_1nF
*****
.subckt 885012006073_10pF 1 2
Rser 1 3 0.407424144741
Lser 2 4 5.41304078E-10
C 3 4 0.00000000001
Rpar 3 4 10000000000
.ends 885012006073_10pF
*****
.subckt 885012006074_15pF 1 2
Rser 1 3 0.380584852252
Lser 2 4 5.65804545E-10
C 3 4 0.000000000015
Rpar 3 4 10000000000
.ends 885012006074_15pF
*****
.subckt 885012006076_33pF 1 2
Rser 1 3 0.286862998414
Lser 2 4 6.50561095E-10
C 3 4 0.000000000033
Rpar 3 4 10000000000
.ends 885012006076_33pF
*****
.subckt 885012006077_47pF 1 2
Rser 1 3 0.245803082005
Lser 2 4 6.35972597E-10
C 3 4 0.000000000047
Rpar 3 4 10000000000
.ends 885012006077_47pF
*****
.subckt 885012006078_68pF 1 2
Rser 1 3 0.200732636434
Lser 2 4 5.98671906E-10
C 3 4 0.000000000068
Rpar 3 4 10000000000
.ends 885012006078_68pF
*****
.subckt 885012006079_0.1nF 1 2
Rser 1 3 0.147736548124
Lser 2 4 5.50713639E-10
C 3 4 0.0000000001
Rpar 3 4 10000000000
.ends 885012006079_0.1nF
*****
.subckt 885012006080_0.15nF 1 2
Rser 1 3 0.123096464746
Lser 2 4 5.27226081E-10
C 3 4 0.00000000015
Rpar 3 4 10000000000
.ends 885012006080_0.15nF
*****
.subckt 885012006082_0.33nF 1 2
Rser 1 3 0.0953300210797
Lser 2 4 4.24072373E-10
C 3 4 0.00000000033
Rpar 3 4 10000000000
.ends 885012006082_0.33nF
*****
.subckt 885012006083_0.47nF 1 2
Rser 1 3 0.0701382798145
Lser 2 4 4.13398494E-10
C 3 4 0.00000000047
Rpar 3 4 10000000000
.ends 885012006083_0.47nF
*****
.subckt 885012006084_0.68nF 1 2
Rser 1 3 0.0621072894488
Lser 2 4 4.13475086E-10
C 3 4 0.00000000068
Rpar 3 4 10000000000
.ends 885012006084_0.68nF
*****
.subckt 885012006085_1nF 1 2
Rser 1 3 0.0532527583524
Lser 2 4 3.27557981E-10
C 3 4 0.000000001
Rpar 3 4 10000000000
.ends 885012006085_1nF
*****
.subckt 885012007001_15pF 1 2
Rser 1 3 0.322686614764
Lser 2 4 5.17792028E-10
C 3 4 0.000000000015
Rpar 3 4 10000000000
.ends 885012007001_15pF
*****
.subckt 885012007002_22pF 1 2
Rser 1 3 0.304017782882
Lser 2 4 6.06807592E-10
C 3 4 0.000000000022
Rpar 3 4 10000000000
.ends 885012007002_22pF
*****
.subckt 885012007003_33pF 1 2
Rser 1 3 0.278413141435
Lser 2 4 5.73322702E-10
C 3 4 0.000000000033
Rpar 3 4 10000000000
.ends 885012007003_33pF
*****
.subckt 885012007004_0.1nF 1 2
Rser 1 3 0.144376756
Lser 2 4 4.19735168E-10
C 3 4 0.0000000001
Rpar 3 4 10000000000
.ends 885012007004_0.1nF
*****
.subckt 885012007005_0.15nF 1 2
Rser 1 3 0.132070069125
Lser 2 4 4.14007712E-10
C 3 4 0.00000000015
Rpar 3 4 10000000000
.ends 885012007005_0.15nF
*****
.subckt 885012007006_0.33nF 1 2
Rser 1 3 0.0858219234392
Lser 2 4 4.4258651E-10
C 3 4 0.00000000033
Rpar 3 4 10000000000
.ends 885012007006_0.33nF
*****
.subckt 885012007007_0.47nF 1 2
Rser 1 3 0.0754569114616
Lser 2 4 4.35286885E-10
C 3 4 0.00000000047
Rpar 3 4 10000000000
.ends 885012007007_0.47nF
*****
.subckt 885012007008_1nF 1 2
Rser 1 3 0.0525130505561
Lser 2 4 4.16381481E-10
C 3 4 0.000000001
Rpar 3 4 10000000000
.ends 885012007008_1nF
*****
.subckt 885012007009_10nF 1 2
Rser 1 3 0.0143302506767
Lser 2 4 2.53788056E-10
C 3 4 0.00000001
Rpar 3 4 10000000000
.ends 885012007009_10nF
*****
.subckt 885012007010_10pF 1 2
Rser 1 3 0.372486331807
Lser 2 4 3.46703717E-10
C 3 4 0.00000000001
Rpar 3 4 10000000000
.ends 885012007010_10pF
*****
.subckt 885012007011_15pF 1 2
Rser 1 3 0.299277635225
Lser 2 4 4.59074821E-10
C 3 4 0.000000000015
Rpar 3 4 10000000000
.ends 885012007011_15pF
*****
.subckt 885012007012_22pF 1 2
Rser 1 3 0.353164620745
Lser 2 4 4.83956508E-10
C 3 4 0.000000000022
Rpar 3 4 10000000000
.ends 885012007012_22pF
*****
.subckt 885012007013_33pF 1 2
Rser 1 3 0.253567178585
Lser 2 4 4.67181086E-10
C 3 4 0.000000000033
Rpar 3 4 10000000000
.ends 885012007013_33pF
*****
.subckt 885012007014_47pF 1 2
Rser 1 3 0.224186907869
Lser 2 4 4.55318299E-10
C 3 4 0.000000000047
Rpar 3 4 10000000000
.ends 885012007014_47pF
*****
.subckt 885012007015_68pF 1 2
Rser 1 3 0.177556084991
Lser 2 4 3.40488342E-10
C 3 4 0.000000000068
Rpar 3 4 10000000000
.ends 885012007015_68pF
*****
.subckt 885012007016_0.1nF 1 2
Rser 1 3 0.144693224126
Lser 2 4 2.25885151E-10
C 3 4 0.0000000001
Rpar 3 4 10000000000
.ends 885012007016_0.1nF
*****
.subckt 885012007017_0.15nF 1 2
Rser 1 3 0.123365902974
Lser 2 4 2.19751744E-10
C 3 4 0.00000000015
Rpar 3 4 10000000000
.ends 885012007017_0.15nF
*****
.subckt 885012007018_0.22nF 1 2
Rser 1 3 0.10837087132
Lser 2 4 2.252525E-10
C 3 4 0.00000000022
Rpar 3 4 10000000000
.ends 885012007018_0.22nF
*****
.subckt 885012007019_0.33nF 1 2
Rser 1 3 0.0921576071204
Lser 2 4 2.40260993E-10
C 3 4 0.00000000033
Rpar 3 4 10000000000
.ends 885012007019_0.33nF
*****
.subckt 885012007020_0.47nF 1 2
Rser 1 3 0.0750834191209
Lser 2 4 2.93018556E-10
C 3 4 0.00000000047
Rpar 3 4 10000000000
.ends 885012007020_0.47nF
*****
.subckt 885012007021_1nF 1 2
Rser 1 3 0.0483999213452
Lser 2 4 2.79211981E-10
C 3 4 0.000000001
Rpar 3 4 10000000000
.ends 885012007021_1nF
*****
.subckt 885012007022_1.5nF 1 2
Rser 1 3 0.0373928905809
Lser 2 4 2.95075489E-10
C 3 4 0.0000000015
Rpar 3 4 10000000000
.ends 885012007022_1.5nF
*****
.subckt 885012007023_2.2nF 1 2
Rser 1 3 0.0368859488683
Lser 2 4 2.79156194E-10
C 3 4 0.0000000022
Rpar 3 4 10000000000
.ends 885012007023_2.2nF
*****
.subckt 885012007024_3.3nF 1 2
Rser 1 3 0.0117602115678
Lser 2 4 2.50664287E-10
C 3 4 0.0000000033
Rpar 3 4 10000000000
.ends 885012007024_3.3nF
*****
.subckt 885012007025_4.7nF 1 2
Rser 1 3 0.0198836793746
Lser 2 4 1.51240813E-10
C 3 4 0.0000000047
Rpar 3 4 10000000000
.ends 885012007025_4.7nF
*****
.subckt 885012007026_3.3pF 1 2
Rser 1 3 0.407676004204
Lser 2 4 4.49191488E-10
C 3 4 0.0000000000033
Rpar 3 4 10000000000
.ends 885012007026_3.3pF
*****
.subckt 885012007027_6.8pF 1 2
Rser 1 3 0.359480200218
Lser 2 4 4.5722648E-10
C 3 4 0.0000000000068
Rpar 3 4 10000000000
.ends 885012007027_6.8pF
*****
.subckt 885012007028_10pF 1 2
Rser 1 3 0.366485482781
Lser 2 4 5.23706793E-10
C 3 4 0.00000000001
Rpar 3 4 10000000000
.ends 885012007028_10pF
*****
.subckt 885012007029_15pF 1 2
Rser 1 3 0.322140605571
Lser 2 4 5.33099942E-10
C 3 4 0.000000000015
Rpar 3 4 10000000000
.ends 885012007029_15pF
*****
.subckt 885012007030_22pF 1 2
Rser 1 3 0.337501541959
Lser 2 4 6.08362599E-10
C 3 4 0.000000000022
Rpar 3 4 10000000000
.ends 885012007030_22pF
*****
.subckt 885012007031_33pF 1 2
Rser 1 3 0.266905660637
Lser 2 4 5.7081292E-10
C 3 4 0.000000000033
Rpar 3 4 10000000000
.ends 885012007031_33pF
*****
.subckt 885012007032_47pF 1 2
Rser 1 3 0.224971777912
Lser 2 4 5.50463607E-10
C 3 4 0.000000000047
Rpar 3 4 10000000000
.ends 885012007032_47pF
*****
.subckt 885012007033_68pF 1 2
Rser 1 3 0.188385732986
Lser 2 4 4.4496757E-10
C 3 4 0.000000000068
Rpar 3 4 10000000000
.ends 885012007033_68pF
*****
.subckt 885012007034_0.1nF 1 2
Rser 1 3 0.118679326168
Lser 2 4 2.41991847E-10
C 3 4 0.0000000001
Rpar 3 4 10000000000
.ends 885012007034_0.1nF
*****
.subckt 885012007035_0.15nF 1 2
Rser 1 3 0.135556605699
Lser 2 4 4.3127146E-10
C 3 4 0.00000000015
Rpar 3 4 10000000000
.ends 885012007035_0.15nF
*****
.subckt 885012007036_0.22nF 1 2
Rser 1 3 0.115723179071
Lser 2 4 4.36175568E-10
C 3 4 0.00000000022
Rpar 3 4 10000000000
.ends 885012007036_0.22nF
*****
.subckt 885012007037_0.33nF 1 2
Rser 1 3 0.0911424032195
Lser 2 4 4.34684674E-10
C 3 4 0.00000000033
Rpar 3 4 10000000000
.ends 885012007037_0.33nF
*****
.subckt 885012007038_0.47nF 1 2
Rser 1 3 0.0888157768288
Lser 2 4 4.59255914E-10
C 3 4 0.00000000047
Rpar 3 4 10000000000
.ends 885012007038_0.47nF
*****
.subckt 885012007039_0.68nF 1 2
Rser 1 3 0.0750121415022
Lser 2 4 4.46094349E-10
C 3 4 0.00000000068
Rpar 3 4 10000000000
.ends 885012007039_0.68nF
*****
.subckt 885012007040_1nF 1 2
Rser 1 3 0.0506576337129
Lser 2 4 2.60606775E-10
C 3 4 0.000000001
Rpar 3 4 10000000000
.ends 885012007040_1nF
*****
.subckt 885012007041_1.5nF 1 2
Rser 1 3 0.0403337213614
Lser 2 4 2.897145E-10
C 3 4 0.0000000015
Rpar 3 4 10000000000
.ends 885012007041_1.5nF
*****
.subckt 885012007042_2.2nF 1 2
Rser 1 3 0.0313104040283
Lser 2 4 2.67647833E-10
C 3 4 0.0000000022
Rpar 3 4 10000000000
.ends 885012007042_2.2nF
*****
.subckt 885012007043_3.3nF 1 2
Rser 1 3 0.0278586078187
Lser 2 4 3.06758727E-10
C 3 4 0.0000000033
Rpar 3 4 10000000000
.ends 885012007043_3.3nF
*****
.subckt 885012007044_4.7nF 1 2
Rser 1 3 0.0125481242528
Lser 2 4 1.0825546E-10
C 3 4 0.0000000047
Rpar 3 4 10000000000
.ends 885012007044_4.7nF
*****
.subckt 885012007046_1.5pF 1 2
Rser 1 3 0.498754904967
Lser 2 4 4.46307458E-10
C 3 4 0.0000000000015
Rpar 3 4 10000000000
.ends 885012007046_1.5pF
*****
.subckt 885012007047_2.2pF 1 2
Rser 1 3 0.464027184378
Lser 2 4 4.17958974E-10
C 3 4 0.0000000000022
Rpar 3 4 10000000000
.ends 885012007047_2.2pF
*****
.subckt 885012007048_3.3pF 1 2
Rser 1 3 0.476983731701
Lser 2 4 4.57833988E-10
C 3 4 0.0000000000033
Rpar 3 4 10000000000
.ends 885012007048_3.3pF
*****
.subckt 885012007049_4.7pF 1 2
Rser 1 3 0.497100489266
Lser 2 4 4.97943432E-10
C 3 4 0.0000000000047
Rpar 3 4 10000000000
.ends 885012007049_4.7pF
*****
.subckt 885012007050_6.8pF 1 2
Rser 1 3 0.437292047874
Lser 2 4 5.43803179E-10
C 3 4 0.0000000000068
Rpar 3 4 10000000000
.ends 885012007050_6.8pF
*****
.subckt 885012007051_10pF 1 2
Rser 1 3 0.366463334217
Lser 2 4 5.2757105E-10
C 3 4 0.00000000001
Rpar 3 4 10000000000
.ends 885012007051_10pF
*****
.subckt 885012007052_15pF 1 2
Rser 1 3 0.351715326777
Lser 2 4 5.44262413E-10
C 3 4 0.000000000015
Rpar 3 4 10000000000
.ends 885012007052_15pF
*****
.subckt 885012007053_22pF 1 2
Rser 1 3 0.320807516938
Lser 2 4 5.98353392E-10
C 3 4 0.000000000022
Rpar 3 4 10000000000
.ends 885012007053_22pF
*****
.subckt 885012007054_33pF 1 2
Rser 1 3 0.251170142371
Lser 2 4 5.67157711E-10
C 3 4 0.000000000033
Rpar 3 4 10000000000
.ends 885012007054_33pF
*****
.subckt 885012007055_47pF 1 2
Rser 1 3 0.216515950035
Lser 2 4 5.20835554E-10
C 3 4 0.000000000047
Rpar 3 4 10000000000
.ends 885012007055_47pF
*****
.subckt 885012007056_68pF 1 2
Rser 1 3 0.173987704202
Lser 2 4 4.36318354E-10
C 3 4 0.000000000068
Rpar 3 4 10000000000
.ends 885012007056_68pF
*****
.subckt 885012007057_0.1nF 1 2
Rser 1 3 0.112239658687
Lser 2 4 3.23857063E-10
C 3 4 0.0000000001
Rpar 3 4 10000000000
.ends 885012007057_0.1nF
*****
.subckt 885012007058_0.15nF 1 2
Rser 1 3 0.125944924272
Lser 2 4 4.46129224E-10
C 3 4 0.00000000015
Rpar 3 4 10000000000
.ends 885012007058_0.15nF
*****
.subckt 885012007059_0.22nF 1 2
Rser 1 3 0.079249932999
Lser 2 4 3.92377309E-10
C 3 4 0.00000000022
Rpar 3 4 10000000000
.ends 885012007059_0.22nF
*****
.subckt 885012007060_0.33nF 1 2
Rser 1 3 0.0873115639161
Lser 2 4 4.48869509E-10
C 3 4 0.00000000033
Rpar 3 4 10000000000
.ends 885012007060_0.33nF
*****
.subckt 885012007061_0.47nF 1 2
Rser 1 3 0.0447460793708
Lser 2 4 5.13925095E-10
C 3 4 0.00000000047
Rpar 3 4 10000000000
.ends 885012007061_0.47nF
*****
.subckt 885012007062_0.68nF 1 2
Rser 1 3 0.0641329981739
Lser 2 4 4.25300517E-10
C 3 4 0.00000000068
Rpar 3 4 10000000000
.ends 885012007062_0.68nF
*****
.subckt 885012007063_1nF 1 2
Rser 1 3 0.0594421507531
Lser 2 4 4.12205624E-10
C 3 4 0.000000001
Rpar 3 4 10000000000
.ends 885012007063_1nF
*****
.subckt 885012007064_1.5nF 1 2
Rser 1 3 0.0542761813318
Lser 2 4 4.44523189E-10
C 3 4 0.0000000015
Rpar 3 4 10000000000
.ends 885012007064_1.5nF
*****
.subckt 885012007065_2.2nF 1 2
Rser 1 3 0.0452125293188
Lser 2 4 3.18286842E-10
C 3 4 0.0000000022
Rpar 3 4 10000000000
.ends 885012007065_2.2nF
*****
.subckt 885012007066_3.3nF 1 2
Rser 1 3 0.0386718470366
Lser 2 4 4.52637868E-10
C 3 4 0.0000000033
Rpar 3 4 10000000000
.ends 885012007066_3.3nF
*****
.subckt 885012007067_4.7nF 1 2
Rser 1 3 0.0321239026517
Lser 2 4 3.90170133E-10
C 3 4 0.0000000047
Rpar 3 4 10000000000
.ends 885012007067_4.7nF
*****
.subckt 885012007076_10pF 1 2
Rser 1 3 0.348978588999
Lser 2 4 4.65201661E-10
C 3 4 0.00000000001
Rpar 3 4 10000000000
.ends 885012007076_10pF
*****
.subckt 885012007077_15pF 1 2
Rser 1 3 0.299948487506
Lser 2 4 4.54423504E-10
C 3 4 0.000000000015
Rpar 3 4 10000000000
.ends 885012007077_15pF
*****
.subckt 885012007079_33pF 1 2
Rser 1 3 0.121980282644
Lser 2 4 4.43859848E-10
C 3 4 0.000000000033
Rpar 3 4 10000000000
.ends 885012007079_33pF
*****
.subckt 885012007080_47pF 1 2
Rser 1 3 0.166811229395
Lser 2 4 4.10637959E-10
C 3 4 0.000000000047
Rpar 3 4 10000000000
.ends 885012007080_47pF
*****