**************************************************
* Manufacturer:       Wurth Elektronik 
* Kinds:     HighVoltageSMDPower Inductor
* Matchcode:          WE-PD_HV
* Library Type:       spice
* Version:        rev19b
* Created/modified by:    Fredo       
* Date and Time   :       6/20/2019
* Team:           eiSos EDA Service  
* Contact:        libraries@we-online.com
**************************************************
.subckt 1060_7687714332_3300u 1 2
Rp 1 2 448954
Cp 1 2 8.817p
Rs 1 N3 10.4
L1 N3 2 3202u
.ends 1060_7687714332_3300u
*******
.subckt 1060_7687714470_47u 1 2
Rp 1 2 45600
Cp 1 2 5.8p
Rs 1 N3 0.13
L1 N3 2 47u
.ends 1060_7687714470_47u
*******
.subckt 1060_7687714472_4700u 1 2
Rp 1 2 387500
Cp 1 2 8.3p
Rs 1 N3 11.5
L1 N3 2 4700u
.ends 1060_7687714472_4700u
*******
.subckt 1060_7687714101_100u 1 2
Rp 1 2 68711
Cp 1 2 6.627p
Rs 1 N3 0.3
L1 N3 2 91.945u
.ends 1060_7687714101_100u
*******
.subckt 1210_7687709100_10u 1 2
Rp 1 2 9862
Cp 1 2 7.427p
Rs 1 N3 0.027
L1 N3 2 9.562u
.ends 1210_7687709100_10u
*******
.subckt 1210_7687709331_330u 1 2
Rp 1 2 85687
Cp 1 2 16.6p
Rs 1 N3 0.47
L1 N3 2 300.7u
.ends 1210_7687709331_330u
*******
.subckt 1210_7687709472_4700u 1 2
Rp 1 2 300000
Cp 1 2 20p
Rs 1 N3 6.5
L1 N3 2 4700u
.ends 1210_7687709472_4700u
*******
.subckt 1210_7687709682_6800u 1 2
Rp 1 2 298823
Cp 1 2 20.231p
Rs 1 N3 8
L1 N3 2 6071u
.ends 1210_7687709682_6800u
*******
.subckt 1210_7687709820_82u 1 2
Rp 1 2 55518
Cp 1 2 13.363p
Rs 1 N3 0.13
L1 N3 2 73.86u
.ends 1210_7687709820_82u
*******
.subckt 1210_7687709821_820u 1 2
Rp 1 2 119322
Cp 1 2 15.551p
Rs 1 N3 1.05
L1 N3 2 758.7u
.ends 1210_7687709821_820u
*******
.subckt 1280_768770331_330u 1 2
Rp 1 2 154000
Cp 1 2 11.7p
Rs 1 N3 0.5
L1 N3 2 330u
.ends 1280_768770331_330u
*******
.subckt 6050_7687786471_470u 1 2
Rp 1 2 122215
Cp 1 2 5.027p
Rs 1 N3 2.25
L1 N3 2 456.189u
.ends 6050_7687786471_470u
*******
.subckt 7332_7687789102_1000u 1 2
Rp 1 2 326487
Cp 1 2 2.739p
Rs 1 N3 7.6
L1 N3 2 919.9u
.ends 7332_7687789102_1000u
*******
.subckt 7332_7687789471_470u 1 2
Rp 1 2 239000
Cp 1 2 2.78p
Rs 1 N3 2.9
L1 N3 2 470u
.ends 7332_7687789471_470u
*******
.subckt 7332_7687789681_680u 1 2
Rp 1 2 269223
Cp 1 2 3.22p
Rs 1 N3 4.7
L1 N3 2 645u
.ends 7332_7687789681_680u
*******
.subckt 7332_7687789821_820u 1 2
Rp 1 2 318523
Cp 1 2 2.671p
Rs 1 N3 6.7
L1 N3 2 772.5u
.ends 7332_7687789821_820u
*******
.subckt 7345_7687779470_47u 1 2
Rp 1 2 33709
Cp 1 2 4.502p
Rs 1 N3 0.24
L1 N3 2 43.741u
.ends 7345_7687779470_47u
*******
.subckt 7345_7687779006_6u 1 2
Rp 1 2 7867
Cp 1 2 3.245p
Rs 1 N3 0.048
L1 N3 2 5.622u
.ends 7345_7687779006_6u
*******
.subckt 1060_7687714102_1000u 1 2
Rp 1 2 277000
Cp 1 2 7.5p
Rs 1 N3 2.7
L1 N3 2 919.1u
.ends 1060_7687714102_1000u
*******
.subckt 1060_7687714152_1500u 1 2
Rp 1 2 308000
Cp 1 2 7.75p
Rs 1 N3 3.8
L1 N3 2 1361u
.ends 1060_7687714152_1500u
*******
.subckt 1060_7687714221_220u 1 2
Rp 1 2 147680
Cp 1 2 6.339p
Rs 1 N3 0.57
L1 N3 2 197.8u
.ends 1060_7687714221_220u
*******
.subckt 1060_7687714222_2200u 1 2
Rp 1 2 325360
Cp 1 2 7.58p
Rs 1 N3 5.5
L1 N3 2 2093u
.ends 1060_7687714222_2200u
*******
.subckt 1060_7687714471_470u 1 2
Rp 1 2 154450
Cp 1 2 6.75p
Rs 1 N3 1.25
L1 N3 2 446.95u
.ends 1060_7687714471_470u
*******
.subckt 1060_7687714681_680u 1 2
Rp 1 2 231060
Cp 1 2 7.75p
Rs 1 N3 1.9
L1 N3 2 609.3u
.ends 1060_7687714681_680u
*******
.subckt 1210_7687709102_1000u 1 2
Rp 1 2 178860
Cp 1 2 15.1p
Rs 1 N3 1.2
L1 N3 2 855.18u
.ends 1210_7687709102_1000u
*******
.subckt 1210_7687709152_1500u 1 2
Rp 1 2 249710
Cp 1 2 17.127p
Rs 1 N3 1.9
L1 N3 2 1344u
.ends 1210_7687709152_1500u
*******
.subckt 1210_7687709221_220u 1 2
Rp 1 2 114020
Cp 1 2 17.38p
Rs 1 N3 0.3
L1 N3 2 191.43u
.ends 1210_7687709221_220u
*******
.subckt 1210_7687709222_2200u 1 2
Rp 1 2 296540
Cp 1 2 18.035p
Rs 1 N3 3.1
L1 N3 2 1904u
.ends 1210_7687709222_2200u
*******
.subckt 1210_7687709332_3300u 1 2
Rp 1 2 363070
Cp 1 2 18.37p
Rs 1 N3 4.4
L1 N3 2 2855u
.ends 1210_7687709332_3300u
*******
.subckt 1210_7687709471_470u 1 2
Rp 1 2 123970
Cp 1 2 15.069p
Rs 1 N3 0.68
L1 N3 2 422.83u
.ends 1210_7687709471_470u
*******
.subckt 1210_7687709681_680u 1 2
Rp 1 2 150160
Cp 1 2 17.89p
Rs 1 N3 0.95
L1 N3 2 621.5u
.ends 1210_7687709681_680u
*******
.subckt 7345_7687779102_1000u 1 2
Rp 1 2 375650
Cp 1 2 5.1531p
Rs 1 N3 5.1
L1 N3 2 859.17u
.ends 7345_7687779102_1000u
*******
.subckt 7345_7687779221_220u 1 2
Rp 1 2 169750
Cp 1 2 4.6p
Rs 1 N3 1.1
L1 N3 2 201.5u
.ends 7345_7687779221_220u
*******
.subckt 7345_7687779471_470u 1 2
Rp 1 2 195230
Cp 1 2 4.525p
Rs 1 N3 2.7
L1 N3 2 428.7u
.ends 7345_7687779471_470u
*******
.subckt 7345_7687779561_560u 1 2
Rp 1 2 237260
Cp 1 2 4.808p
Rs 1 N3 3
L1 N3 2 534.3u
.ends 7345_7687779561_560u
*******
.subckt 7345_7687779681_680u 1 2
Rp 1 2 255110
Cp 1 2 5.117p
Rs 1 N3 3.4
L1 N3 2 623.135u
.ends 7345_7687779681_680u
*******
