*Ideal diodes, no resistance, capacitance or breakdown voltage 12/18/00
* 12/15/01 add 0.1pF to avoid possible transient convergence issues
* 2/6/02  change to 0.5pF so as not to limit max circuit capacitance too much

.Model .Silicon d(IS=1.0e-14 EG=1.11 N=1.0 XTI=3.0 CJO=0.5pF) 

.Model .Silicon_GoldDope d(IS=1.0e-14 EG=1.11 N=2.0 XTI=3.0 CJO=0.5pF) 

.Model .Schottky d(IS=1.0e-14 EG=0.69 N=1.0 XTI=2.0 CJO=0.5pF) 

.Model .Germanium d(IS=1.0e-14 EG=0.67 N=1.0 XTI=4.0 CJO=0.5pF) 

.Model .GaAs_REDLED d(IS=1.0e-14 EG=1.43 N=1.0 XTI=3.0 CJO=0.5pF) 

.Model .Ga_REDLED d(IS=1.0e-14 EG=2.26 N=1.0 XTI=3.0 CJO=0.5pF) 

.Model 2N2222 NPN IS=3.0E-14 NF=1.0 BF=200 IKF=0.5 
+                    VAF=100 ISE=7.5E-15 NE=1.4 NR=1.0 BR=4 IKR=0.24 
+                    VAR=28  ISC=1.0E-11 NC=1.4 
+                    RB=0.1 RE=0.2  RC=0.1 
+                    CJC=9.0E-12 MJC=0.35 VJC=0.4 CJE=27.0E-12
+                    TF=0.3E-9 TR=100E-9