* Copyright (c) 2000-2020 Analog Devices, Inc.   All rights reserved.
*
.model KT940A npn bf=150 is=400f vaf=200 ikf=60m xtb=1.5 br=1 cjc=24p vjc=.75 mjc=.5 fc=.5 cje=50p vje=.75 mje=.33 tr=50n tf=2.5n itf=50m vtf=10 xtf=2 xti=3 eg=1.11 isc=10f nc=2 ise=700p ne=2 rb=30 rbm=3 irb=.1m rc=3 rco=60 Vo=7 GAMMA=1E-6 QCO=1E-11 Vceo=300 Icrating=100m mfg=USSR
.model kt361g pnp bf=350 br=5 is=400f rb=100 rbm=10 irb=50u rc=10 ikf=70m xti=3 xtb=1.5 xtf=1.1 vaf=70 itf=40m vtf=75 cje=20p xcjc=0.5 cjc=15p tf=0.3n tr=25n vjc=.7 mjc=.33 mje=.33 vje=.5 xcjc=0.15 ne=2 ise=315p nc=2 isc=600p Vceo=35 Icrating=100m mfg=USSR
.model kt342v npn is=20f xti=3 eg=1.11 vaf=90 bf=1400 xtb=1.5 br=1 rb=1.5k rbm=10 rc=1 irb=50u cjc=10p mjc=.39 vjc=.75 fc=.5 cje=14p xcjc=0.1 tf=.4n tr=300n ne=1.33 ise=10f nc=1.34 isc=24f Vceo=10 Icrating=50m mfg=USSR
.model kt315a NPN (Is=2.82f Xti=3 Eg=1.11 Vaf=3.32K Bf=55 Ne=2.35 Ise=554.1p Ikf=18.04m Xtb=1.5 Br=.6455 Nc=2 Isc=0 Ikr=0 Rc=0 Cjc=17p Vjc=.75 Mjc=.333 Fc=.5 Cje=8.55p Vje=.75 Mje=.333 Tr=3.36u Tf=1.02n Itf=0 Vtf=0 Xtf=0 Vceo=25 Icrating=100m mfg=USSR
.model kt315g npn bf=250 is=100f vaf=60 ikf=50m xtb=1.5 br=2 rc=5 rb=200 rbm=20 irb=.3m cjc=15p vjc=.75 mjc=.33 fc=.5 cje=20p vje=.75 mje=.33 tr=250n tf=.4n itf=40m vtf=10 xtf=2 xti=3 eg=1.11 xcjc=0.15 ne=1.8 ise=20p nc=2 isc=600p BVbe=7 IBVbe=20u BVcbo=120 Vceo=35 Icrating=100m mfg=USSR
.model kt3153a9 npn is=20f eg=1.11 vaf=80 bf=250 ikf=1 br=5 var=12 rb=500 rbm=80 irb=50u rc=1 cjc=10p mjc=.56 vjc=.7 fc=.5 cje=15p mje=.64 vje=.7 tf=.4n tr=400n xcjc=0.3 xtb=1.5 xti=3 itf=80m vtf=10 xtf=.5 ne=1.4 ise=20f nc=2 isc=4.4p Vceo=50 Icrating=400m mfg=USSR
.model kt3129b pnp is=10f eg=1.11 vaf=60 bf=310 ikf=.14 br=6 var=12 rb=200 rbm=50 irb=30u rc=1. re=0.6 cjc=11p mjc=.56 vjc=.7 fc=.5 cje=16p mje=.64 vje=.7 tf=.5n tr=75n xcjc=0.3 xtb=1.5 xti=3 itf=10m vtf=10 xtf=.5 ne=1.46 ise=50f nc=2 isc=4.4p Vceo=50 Icrating=100m mfg=USSR
.model kt3107l pnp bf=800 br=5 is=.2p ikf=.1 xtb=1.5 cjc=7p cje=11p tf=.5n vaf=70 ikr=80m rc=.8 tr=30n rb=350 irb=10u xcjc=0.3 itf=80m vtf=50 kf=5.f xtf=1.2 eg=1.11 ne=1.2 ise=10f nc=2 isc=100p Vceo=20 Icrating=100m mfg=USSR
.model kt3102e npn bf=5000 br=5 is=.2p tf=.4n cjc=12p cje=12p vaf=100 tr=45n rc=.5 rb=1.5k rbm=80 irb=10u ikf=50m xcjc=0.3 kf=5f eg=1.11 ne=1.35 ise=0.1p nc=2 isc=1p Vceo=20 Icrating=100m mfg=USSR
.model kt209m pnp bf=100 br=2.5 is=24f rb=100 rbm=40 irb=0.5m rc=1.8 ikf=70m xti=3 xtb=1.5 xtf=2 vaf=30 itf=.2 vtf=5 cje=25p xcjc=0.5 cjc=16p tf=8n tr=64n vjc=.67 mjc=.33 mje=.35 vje=.73 ne=1.5 ise=600f nc=2 isc=10p Vceo=60 Icrating=300m mfg=USSR
.model kt209k pnp bf=185 br=2.5 is=24f rb=100 rbm=40 irb=0.5m rc=1.8 ikf=70m xti=3 xtb=1.5 xtf=2 vaf=30 itf=.2 vtf=5 cje=25p xcjc=0.5 cjc=16p tf=8n tr=64n vjc=.67 mjc=.33 mje=.35 vje=.73 ne=1.5 ise=600f nc=2 isc=10p Vceo=45 Icrating=300m mfg=USSR
.model kt203b pnp is=300f bf=53.2 vaf=50 ikf=6.112m ise=22.18f ne=1.559 br=0.952 nr=0.94 var=55 ikr=4.5m isc=1.2p nc=2 rb=180 rc=13.6 cje=15.27p vje=0.69 mje=0.35 tf=14.64n xtf=1 vtf=15 itf=12.5m cjc=12.95p vjc=0.69 mjc=0.33 tr=144.4n xtb=1.5 eg=1.11 xti=3 fc=0.5 Vceo=30 Icrating=10m mfg=USSR
.model kt312v npn is=6.734f bf=280 vaf=60 ikf=30m ise=6.734f ne=1.205 br=.81 rb=200 rc=1 cje=4.493p vje=.75 mje=.2593 tf=301.2p xtf=2 vtf=5 itf=.4 cjc=3.116p vjc=.75 mjc=.3 tr=244.2n xtb=1.5 eg=1.11 xti=3 fc=.5 Vceo=20 Icrating=30m mfg=USSR
.model kt903 npn is=9.99927f bf=200.011 nf=998.719m vaf=100 ikf=1 ise=1.035p ne=1.45108 br=5 ikr=994.189 isc=2.46003f nc=2 re=1.0747 cje=2p mje=500m tf=1.24961n xtf=500m vtf=10 itf=10.182m cjc=1.15697n vjc=750.038m mjc=501.035m tr=1.218484e-018 eg=1.11 fc=500m Vceo=60 Icrating=3 mfg=USSR
.MODEL KT903_ NPN (IS=221F NF=1 BF=65 VAF=139 IKF=1 ISE=297P NE=2 BR=4 NR=1 VAR=16 IKR=2.7 RE=0.41 RB=1.64 RC=0.164 XTB=1.5 CJE=277P VJE=0.6 MJE=0.5 CJC=180P VJC=0.3 MJC=0.3 TF=1.33N TR=51N Vceo=60 Icrating=3 mfg=USSR)
.model kt961a npn is=500f bf=100 vaf=100 ikf=0.2615 ise=0.988p ne=1.293 br=0.109 ikr=0 isc=0 nc=2 rb=2 re=0.01 rc=0.02 cje=75p vje=0.75 mje=0.39 tf=425p xtf=4 vtf=4 itf=0.6 cjc=60p vjc=0.75 mjc=0.39 tr=444n xtb=1.5 eg=1.11 xti=3 fc=0.5 Vceo=80 Icrating=1.5 mfg=USSR
.model KT646A NPN(IS=17.03f BF=200 BR=4.6 ISE=153.3f ISC=1.35p IKF=0.4095 IKR=0.21 NE=1.368 NC=2 VAF=123 VAR=75 RC=0.35 RB=15 TF=1.8n TR=50n XTF=1 VTF=60 ITF=0.65 CJE=34.4p VJE=0.69 MJE=0.33 CJC=21.24p VJC=0.69 MJC=0.33 FC=0.5 EG=1.11 XTB=1.5 XTI=3 Vceo=60 Icrating=1 mfg=USSR)
.model kt313b pnp is=3.306f bf=153.6 vaf=86.3 ikf=2.47 ise=3.306f ne=1.36 br=3.375 var=40 ikr=.85 isc=33.2f nc=2 rb=23.2 rc=1.345 cje=30.64p vje=.69 mje=.33 tf=267.9p xtf=2 vtf=65 itf=.785 cjc=18.71p vjc=.69 mjc=.31 tr=58.87n xtb=1.5 eg=1.11 xti=3 fc=.5 Vceo=60 Icrating=350m mfg=USSR
.MODEL KT801B NPN IS=190.858F BF=60.6285 VAF=112.9 IKF=970.016m ISE=36.S238N NE=2.76223 BR=2 IKR=9.90801 ISC=0.000104233F NC=2 RE=201.343m RC=26.9255m CJE=430p Cjc=105p mjc=0.4 mje=0.5 Tf=5n tr=500n mfg=USSR
.model KT814a PNP(Is=11.45f Xti=3 Eg=1.11 Vaf=62.37 Bf=176.8 Ise=88.24f Ne=1.411 Ikf=.3656 Nk=.6491 Xtb=1.5 Br=1.238 Isc=269.4f Nc=1.51 Ikr=1.275 Rc=.1654 Rb=4 Cjc=88.73p Mjc=.3333 Vjc=.75 Fc=.5 Cje=71.14p Mje=.33 Vje=.75 Tr=2.046u Tf=26.36n Itf=3 Xtf=5 Vtf=10 Vceo=40 Icrating=1.5 mfg=USSR)
.model KT814b PNP(Is=11.45f Xti=3 Eg=1.11 Vaf=72.62 Bf=128.7 Ise=97.57f Ne=1.421 Ikf=.2157 Nk=.4096 Xtb=1.5 Br=1.928 Isc=637.6f Nc=1.41 Ikr=.5927 Rc=.2979 Rb=4 Cjc=88.73p Mjc=.3333 Vjc=.75 Fc=.5 Cje=71.14p Mje=.3333 Vje=.75 Tr=2.046u Tf=26.36n Itf=3 Xtf=5 Vtf=10 Vceo=50 Icrating=1.5 mfg=USSR)
.model KT814v PNP(Is=11.45f Xti=3 Eg=1.11 Vaf=100 Bf=102.8 Ise=97.57f Ne=1.421 Ikf=.2157 Nk=.4096 Xtb=1.5 Br=1.928 Isc=637.6f Nc=1.41 Ikr=.5927 Rc=.2979 Rb=4 Cjc=88.73p Mjc=.3333 Vjc=.75 Fc=.5 Cje=71.14p Mje=.3333 Vje=.75 Tr=2.046u Tf=26.36n Itf=3 Xtf=5 Vtf=10 Vceo=70 Icrating=1.5 mfg=USSR)
.model KT815a NPN(Is=10.2f Xti=3 Eg=1.11 Vaf=70 Bf=191.7 Ise=349.5f Ne=1.422 Ikf=.4139 Nk=.624 Xtb=1.5 Br=1.683 Isc=706.1f Nc=1.473 Ikr=.5592 Rc=.203 Rb=5 Cjc=88.73p Mjc=.3333 Vjc=.75 Fc=.5 Cje=71.14p Mje=.3333 Vje=.75 Tr=2.046u Tf=24.32n Itf=1 Xtf=2 Vtf=10 Vceo=40 Icrating=1.5 mfg=USSR)
.model KT815b NPN(Is=10.2f Xti=3 Eg=1.11 Vaf=87 Bf=159.4 Ise=573.7f Ne=1.453 Ikf=.3983 Nk=.5 Xtb=1.5 Br=1.576 Isc=231.6f Nc=1.44 Ikr=.3633 Rc=.2936 Rb=5 Cjc=88.73p Mjc=.3333 Vjc=.75 Fc=.5 Cje=71.14p Mje=.3333 Vje=.75 Tr=2.046u Tf=24.32n Itf=1 Xtf=2 Vtf=10 Vceo=50 Icrating=1.5 mfg=USSR)
.model KT815v NPN(Is=10.2f Xti=3 Eg=1.11 Vaf=87 Bf=115.3 Ise=573.7f Ne=1.453 Ikf=.3983 Nk=.5 Xtb=1.5 Br=1.576 Isc=231.6f Nc=1.44 Ikr=.3633 Rc=.2936 Rb=5 Cjc=88.73p Mjc=.3333 Vjc=.75 Fc=.5 Cje=71.14p Mje=.3333 Vje=.75 Tr=2.046u Tf=24.32n Itf=1 Xtf=2 Vtf=10 Vceo=70 Icrating=1.5 mfg=USSR)
.model KT816a PNP(Is=61.09f Xti=3 Eg=1.11 Vaf=63 Bf=210.7 Ise=1.298p Ne=1.571 Ikf=.4055 Nk=.5019 Xtb=1.5 Br=1.216 Isc=1.831p Nc=1.514 Ikr=.7536 Rc=.1198 Cjc=129.88p Mjc=.3333 Vjc=.75 Fc=.5 Cje=110.3p Mje=.3535 Vje=.75 Tr=391.3n Tf=23.31n Itf=1 Xtf=2 Vtf=10 Vceo=40 Icrating=3 mfg=USSR)
.model KT816b PNP(Is=61.09f Xti=3 Eg=1.11 Vaf=85 Bf=137.6 Ise=862.2f Ne=1.481 Ikf=1.642 Nk=.5695 Xtb=1.5 Br=1.453 Isc=1.831p Nc=1.514 Ikr=.7536 Rc=.1198 Cjc=130.06p Mjc=.3333 Vjc=.75 Fc=.5 Cje=100.8p Mje=.3333 Vje=.75 Tr=465.1n Tf=31.79n Itf=1 Xtf=2 Vtf=10 Vceo=45 Icrating=3 mfg=USSR)
.model KT816v PNP(Is=61.09f Xti=3 Eg=1.11 Vaf=85 Bf=100.3 Ise=862.2f Ne=1.481 Ikf=1.642 Nk=.5695 Xtb=1.5 Br=1.453 Isc=1.831p Nc=1.514 Ikr=.7536 Rc=.1198 Cjc=130.06p Mjc=.3333 Vjc=.75 Fc=.5 Cje=100.8p Mje=.3333 Vje=.75 Tr=465.1n Tf=31.79n Itf=1 Xtf=2 Vtf=10 Vceo=60 Icrating=3 mfg=USSR)
.model kt817a NPN(Is=66.19f Xti=3 Eg=1.11 Vaf=100 Bf=287.1 Ise=330.5f Ne=1.426 Ikf=.603 Nk=.5972 Xtb=1.5 Br=1.216 Isc=1.984p Nc=1.514 Ikr=.7536 Rc=.1198 Cjc=116.7p Mjc=.3155 Vjc=.75 Fc=.5 Cje=108.6p Mje=.3333 Vje=.75 Tr=137.2n Tf=26.48n Itf=1 Xtf=2 Vtf=10 Vceo=40 Icrating=3 mfg=USSR)
.model kt817b NPN(Is=66.19f Xti=3 Eg=1.11 Vaf=105 Bf=132.5 Ise=564.1f Ne=1.413 Ikf=.1501 Nk=.4187 Xtb=1.5 Br=1.663 Isc=1.043p Nc=1.476 Ikr=.9431 Rc=.1435 Cjc=98.3p Mjc=.3155 Vjc=.75 Fc=.5 Cje=108.6p Mje=.3333 Vje=.75 Tr=137.2n Tf=26.48n Itf=1 Xtf=2 Vtf=10 Vceo=45 Icrating=3 mfg=USSR)
.model kt817v NPN(Is=66.19f Xti=3 Eg=1.11 Vaf=105 Bf=94.53 Ise=728.1f Ne=1.432 Ikf=.4772 Nk=.4907 Xtb=1.5 Br=1.663 Isc=1.043p Nc=1.476 Ikr=.9431 Rc=.1435 Cjc=98.3p Mjc=.3155 Vjc=.75 Fc=.5 Cje=108.6p Mje=.3333 Vje=.75 Tr=137.2n Tf=26.48n Itf=1 Xtf=2 Vtf=10 Vceo=60 Icrating=3 mfg=USSR)
.MODEL KT818 PNP (IS=368.821F BF=1.01029K VAF=100 IKF=463.629M ISE=52.8319P NE=1.64536 BR=2 IKR=9.16877K ISC=3.270898e-018 RC=85.4283M CJE=2.61852N VJE=700M MJE=499.936M CJC=1.14188N VJC=699.998M MJC=500.189M TF=41.8055N XTF=500.005M VTF=10 ITF=18.5428M TR=1.91831U)
.model KT818a PNP(Is=150.1f Xti=3 Eg=1.11 Vaf=70 Bf=135.8 Ise=2.436p Ne=1.37 Ikf=6.563 Nk=.6668 Xtb=1.5 Br=1.6 Isc=2.847p Nc=1.564 Ikr=.24 Rc=74m Rb=1 Cjc=1.183n Mjc=.3333 Vjc=.75 Fc=.5 Cje=1.635n Mje=.3333 Vje=.75 Tr=2.65u Tf=20.02n Itf=.3063 Xtf=.8299 Vtf=10 Vceo=40 Icrating=10 mfg=USSR)
.model KT818b PNP(Is=150.1f Xti=3 Eg=1.11 Vaf=80 Bf=179.1 Ise=1.171p Ne=1.321 Ikf=5.846 Nk=.6543 Xtb=1.5 Br=1.6 Isc=2.847p Nc=1.564 Ikr=.24 Rc=74m Rb=1 Cjc=1.183n Mjc=.3333 Vjc=.75 Fc=.5 Cje=1.635n Mje=.3333 Vje=.75 Tr=2.203u Tf=20.02n Itf=.3063 Xtf=.8299 Vtf=10 Vceo=50 Icrating=10 mfg=USSR)
.model KT818v PNP(Is=150.1f Xti=3 Eg=1.11 Vaf=100 Bf=179.1 Ise=1.171p Ne=1.321 Ikf=5.846 Nk=.6543 Xtb=1.5 Br=1.6 Isc=2.847p Nc=1.564 Ikr=.24 Rc=74m Rb=1 Cjc=1.183n Mjc=.3333 Vjc=.75 Fc=.5 Cje=1.635n Mje=.3333 Vje=.75 Tr=2.203u Tf=20.02n Itf=.3063 Xtf=.8299 Vtf=10 Vceo=70 Icrating=10 mfg=USSR)
.model KT819a NPN(Is=114.5f Xti=3 Eg=1.11 Vaf=80 Bf=176.5 Ise=1.231p Ne=1.371 Ikf=3.193 Nk=.5458 Xtb=1.5 Br=1 Isc=1.185p Nc=1.533 Ikr=.4086 Rc=36.34m Rb=2 Cjc=1.183n Mjc=.3333 Vjc=.75 Fc=.5 Cje=1.635n Mje=.3333 Vje=.75 Tr=2.955u Tf=14.69n Itf=1.387 Xtf=.4251 Vtf=10 Vceo=40 Icrating=10 mfg=USSR)
.model KT819b NPN(Is=114.5f Xti=3 Eg=1.11 Vaf=90 Bf=161 Ise=1.416p Ne=1.341 Ikf=4.184 Nk=.649 Xtb=1.5 Br=3.8 Isc=1.266p Nc=1.51 Ikr=1.1 Rc=60m Rb=2 Cjc=1.183n Mjc=.3333 Vjc=.75 Fc=.5 Cje=1.635n Mje=.3333 Vje=.75 Tr=1.381u Tf=14.69n Itf=1.387 Xtf=.4251 Vtf=10 Vceo=50 Icrating=10 mfg=USSR)
.model KT819v NPN(Is=114.5f Xti=3 Eg=1.11 Vaf=100 Bf=161 Ise=1.416p Ne=1.341 Ikf=4.184 Nk=.649 Xtb=1.5 Br=3.8 Isc=1.266p Nc=1.51 Ikr=1.1 Rc=60m Rb=2 Cjc=1.183n Mjc=.3333 Vjc=.75 Fc=.5 Cje=1.635n Mje=.3333 Vje=.75 Tr=1.381u Tf=14.69n Itf=1.387 Xtf=.4251 Vtf=10 Vceo=70 Icrating=10 mfg=USSR)
.MODEL KT819G NPN (IS=5.5357p BF=451.87 VAF=100 IKF=.67023 ISE=1.9839n NE=1.8519 BR=499.50 VAR=100 IKR=19.980 ISC=256.11n NC=2.1525 NK=.5187 RB=.41233 RC=83.722m CJE=2.3713n MJE=.33333 CJC=1.1831n MJC=.33333 TF=8.5594n XTF=10 VTF=10 ITF=1 TR=95.284n Vceo=100 Icrating=10 mfg=USSR)
.MODEL KT818G PNP (IS=4.4759p BF=101.08 VAF=100 IKF=3.9089 ISE=1.8829n NE=1.8721 BR=499.50 VAR=100 IKR=18.443 ISC=2.0748n NC=1.5432 NK=.55074 RB=.57769 RC=.3189 CJE=2.3713n MJE=.33333 CJC=1.1831n MJC=.33333 TF=13.905n XTF=10 VTF=10 ITF=1 TR=418.88n Vceo=100 Icrating=10 mfg=USSR)
.model KT837K PNP(IS=100p BF=100 BR=3 ISE=900p ISC=10n IKF=5 NE=1.9 NC=2 VAF=50 RC=0.1 RB=0.4 TF=30n TR=970n XTF=2 VTF=10 ITF=20 CJE=370p VJE=0.75 MJE=0.33 CJC=420p VJC=0.75 MJC=0.33 FC=0.5 EG=1.11 XTB=1.5 XTI=3 Vceo=45 Icrating=8 mfg=USSR)
.model KT203a PNP(Is=459.4E-18 Xti=3 Eg=1.11 Vaf=85.5 Bf=29.73 Ise=14.21f Ne=1.406 Ikf=24.22m Nk=.5 Xtb=1.5 Br=1.432 Isc=183.9f Nc=1.223 Ikr=.8622 Rb265 Rc=.3177 Cjc=15.77p Mjc=.33 Vjc=.75 Fc=.5 Cje=93.8p Mje=.5729 Vje=.75 Tr=10.33u Tf=20.58n Itf=.23 Xtf=2 Vtf=30 mfg=USSR)
.model KT203v PNP(Is=459.4E-18 Xti=3 Eg=1.11 Vaf=46.32 Bf=76.19 Ise=1.666f Ne=1.288 Ikf=11.51m Nk=.5 Xtb=1.5 Br=1.432 Isc=183.9f Nc=1.223 Ikr=.8622 Rb=280 Rc=.3177 Cjc=15.77p Mjc=.33 Vjc=.75 Fc=.5 Cje=93.8p Mje=.5729 Vje=.75 Tr=7.428u Tf=9.768n Itf=.3 Xtf=2 Vtf=10 mfg=USSR)
.model KT208a PNP(Is=8.347f Xti=3 Eg=1.11 Vaf=46.32 Bf=99.51 Ne=1.913 Ise=64.3p Ikf=94.54m Xtb=1.5 Var=13 Br=12.49 Nc=2 Isc=64f Ikr=.305 Rb=13 Rc=.45 Cjc=100p Mjc=.39 Vjc=.75 Fc=.5 Cje=93.8p Mje=.5729 Vje=.75 Tr=383.4n Tf=30.35n Itf=.3 Vtf=20 Xtf=1.5 mfg=USSR)
.model KT208b PNP(Is=8.347f Xti=3 Eg=1.11 Vaf=46.32 Bf=100 Ne=1.523 Ise=357.9f Ikf=.6605 Xtb=1.5 Br=3.606 Nc=2 Isc=64f Ikr=.305 Rb=15 Rc=.4 Cjc=100p Mjc=.39 Vjc=.75 Fc=.5 Cje=93.8p Mje=.5729 Vje=.75 Tr=718.4n Tf=25.14n Itf=.3 Vtf=20 Xtf=1.5 mfg=USSR)
.model KT208v PNP(Is=7.151f Xti=3 Eg=1.11 Vaf=46.32 Bf=138.9 Ne=1.934 Ise=5.84p Ikf=1.068 Xtb=1.5 Br=3.606 Nc=2 Isc=64f Ikr=.305 Rb=15 Rc=.4 Cjc=100p Mjc=.39 Vjc=.75 Fc=.5 Cje=93.8p Mje=.5729 Vje=.75 Tr=583.5n Tf=21.36n Itf=.3 Vtf=20 Xtf=1.5 mfg=USSR)
.model KT208g PNP(Is=8.347f Xti=3 Eg=1.11 Vaf=46.32 Bf=99.51 Ne=1.913 Ise=64.3p Ikf=94.54m Xtb=1.5 Var=13 Br=12.49 Nc=2 Isc=64f Ikr=.305 Rb=13 Rc=.45 Cjc=100p Mjc=.39 Vjc=.75 Fc=.5 Cje=93.8p Mje=.5729 Vje=.75 Tr=383.4n Tf=30.35n Itf=.3 Vtf=30 Xtf=1.5 mfg=USSR)
.model KT208d PNP(Is=8.347f Xti=3 Eg=1.11 Vaf=46.32 Bf=100 Ne=1.523 Ise=357.9f Ikf=.6605 Xtb=1.5 Br=3.606 Nc=2 Isc=64f Ikr=.305 Rb=15 Rc=.4 Cjc=100p Mjc=.39 Vjc=.75 Fc=.5 Cje=93.8p Mje=.5729 Vje=.75 Tr=718.4n Tf=25.14n Itf=.3 Vtf=30 Xtf=1.5 mfg=USSR)
.model KT208e PNP(Is=7.151f Xti=3 Eg=1.11 Vaf=46.32 Bf=138.9 Ne=1.934 Ise=5.84p Ikf=1.068 Xtb=1.5 Br=3.606 Nc=2 Isc=64f Ikr=.305 Rb=15 Rc=.4 Cjc=100p Mjc=.39 Vjc=.75 Fc=.5 Cje=93.8p Mje=.5729 Vje=.75 Tr=583.5n Tf=21.36n Itf=.3 Vtf=30 Xtf=1.5 mfg=USSR)
.model KT208j PNP(Is=8.347f Xti=3 Eg=1.11 Vaf=46.32 Bf=99.51 Ne=1.913 Ise=64.3p Ikf=94.54m Xtb=1.5 Var=13 Br=12.49 Nc=2 Isc=64f Ikr=.305 Rb=13 Rc=.45 Cjc=100p Mjc=.39 Vjc=.75 Fc=.5 Cje=93.8p Mje=.5729 Vje=.75 Tr=383.4n Tf=30.35n Itf=.3 Vtf=45 Xtf=1.5 mfg=USSR)
.model KT208i PNP(Is=8.347f Xti=3 Eg=1.11 Vaf=46.32 Bf=100 Ne=1.523 Ise=357.9f Ikf=.6605 Xtb=1.5 Br=3.606 Nc=2 Isc=64f Ikr=.305 Rb=15 Rc=.4 Cjc=100p Mjc=.39 Vjc=.75 Fc=.5 Cje=93.8p Mje=.5729 Vje=.75 Tr=718.4n Tf=25.14n Itf=.3 Vtf=45 Xtf=1.5 mfg=USSR)
.model KT208k PNP(Is=7.151f Xti=3 Eg=1.11 Vaf=46.32 Bf=138.9 Ne=1.934 Ise=5.84p Ikf=1.068 Xtb=1.5 Br=3.606 Nc=2 Isc=64f Ikr=.305 Rb=15 Rc=.4 Cjc=100p Mjc=.39 Vjc=.75 Fc=.5 Cje=93.8p Mje=.5729 Vje=.75 Tr=583.5n Tf=21.36n Itf=.3 Vtf=50 Xtf=1.5 mfg=USSR)
.MODEL 2T208K PNP (IS=10F BF=202.02 NF=1.00012 VAF=46.2499 IKF=80.3629M ISE=1.350869e-018 NE=1.52899 BR=4.10679 IKR=999.977 ISC=100P NC=2 RE=367.168M CJE=108.675P VJE=700.002M MJE=499.771M CJC=190.373P VJC=700M MJC=500.069M TF=157.6P XTF=500M VTF=10 ITF=10M TR=78.78P EG=1.11 mfg=USSR)
.model KT208l PNP(Is=8.347f Xti=3 Eg=1.11 Vaf=46.32 Bf=99.51 Ne=1.913 Ise=64.3p Ikf=94.54m Xtb=1.5 Var=13 Br=12.49 Nc=2 Isc=64f Ikr=.305 Rb=13 Rc=.45 Cjc=100p Mjc=.39 Vjc=.75 Fc=.5 Cje=93.8p Mje=.5729 Vje=.75 Tr=383.4n Tf=30.35n Itf=.3 Vtf=50 Xtf=1.5 mfg=USSR)
.model KT208m PNP(Is=8.347f Xti=3 Eg=1.11 Vaf=46.32 Bf=100 Ne=1.523 Ise=357.9f Ikf=.6605 Xtb=1.5 Br=3.606 Nc=2 Isc=64f Ikr=.305 Rb=15 Rc=.4 Cjc=100p Mjc=.39 Vjc=.75 Fc=.5 Cje=93.8p Mje=.5729 Vje=.75 Tr=718.4n Tf=25.14n Itf=.3 Vtf=50 Xtf=1.5 mfg=USSR)
.model KT313a PNP(Is=3.306f Xti=3 Eg=1.11 Vaf=86.3 Bf=153.6 Ne=1.36 Ise=3.306f Ikf=2.47 Xtb=1.5 Var=40 Br=3.375 Nc=2 Isc=33.2f Ikr=.85 Rb=23.2 Rc=1.345 Cjc=18.71p Vjc=.69 Mjc=.31 Fc=.5 Cje=30.64p Vje=.69 Mje=.33 Tr=58.87n Tf=267.9p Itf=.785 Vtf=65 Xtf=2 mfg=USSR)
.model KT502a PNP(Is=3.48f Xti=3 Eg=1.11 Vaf=60 Bf=121.1 Ise=27.32f Ne=1.358 Ikf=74.95m Nk=.4803 Xtb=1.5 Br=1 Isc=13.91f Nc=1.34 Ikr=2.077 Rb=12 Rc=.9855 Cjc=23.66p Mjc=.33 Vjc=.75 Fc=.5 Cje=26.53p Mje=.33 Vje=.75 Tr=923.3n Tf=10.3n Itf=1 Xtf=2 Vtf=25 mfg=USSR)
.model KT502b PNP(Is=3.48f Xti=3 Eg=1.11 Vaf=60 Bf=209.4 Ise=54.03f Ne=1.457 Ikf=27.44m Nk=.5 Xtb=1.5 Br=1.2 Isc=13.91f Nc=1.34 Ikr=2.077 Rb=15 Rc=1.133 Cjc=23.66p Mjc=.33 Vjc=.75 Fc=.5 Cje=26.53p Mje=.33 Vje=.75 Tr=712.7n Tf=7.62n Itf=1 Xtf=2 Vtf=25 mfg=USSR)
.model KT502v PNP(Is=7.541f Xti=3 Eg=1.11 Vaf=115 Bf=118.8 Ise=61.46f Ne=1.382 Ikf=.1498 Nk=.593 Xtb=1.5 Br=2.3 Isc=13.91f Nc=1.34 Ikr=2.077 Rb=10 Rc=1.2 Cjc=23.66p Mjc=.33 Vjc=.75 Fc=.5 Cje=26.53p Mje=.33 Vje=.75 Tr=363.5n Tf=10.3n Itf=1 Xtf=2 Vtf=25 mfg=USSR)
.model KT502g PNP(Is=3.48f Xti=3 Eg=1.11 Vaf=100 Bf=209.4 Ise=54.03f Ne=1.457 Ikf=27.44m Nk=.5 Xtb=1.5 Br=1.2 Isc=13.91f Nc=1.34 Ikr=2.077 Rb=15 Rc=1.133 Cjc=23.66p Mjc=.33 Vjc=.75 Fc=.5 Cje=26.53p Mje=.33 Vje=.75 Tr=712.7n Tf=7.62n Itf=1 Xtf=2 Vtf=40 mfg=USSR)
.model KT502d PNP(Is=7.541f Xti=3 Eg=1.11 Vaf=115 Bf=118.7 Ise=73.88f Ne=1.396 Ikf=.1211 Nk=.5237 Xtb=1.5 Br=2.3 Isc=13.91f Nc=1.34 Ikr=2.077 Rb=15 Rc=1.2 Cjc=23.66p Mjc=.33 Vjc=.75 Fc=.5 Cje=26.53p Mje=.33 Vje=.75 Tr=484.6n Tf=12.96n Itf=1 Xtf=2 Vtf=50 mfg=USSR)
.model KT502e PNP(Is=3.48f Xti=3 Eg=1.11 Vaf=120 Bf=121.1 Ise=27.32f Ne=1.358 Ikf=74.95m Nk=.4803 Xtb=1.5 Br=1 Isc=13.91f Nc=1.34 Ikr=2.077 Rb=12 Rc=.9855 Cjc=23.66p Mjc=.33 Vjc=.75 Fc=.5 Cje=26.53p Mje=.33 Vje=.75 Tr=923.3n Tf=10.3n Itf=1 Xtf=2 Vtf=80 mfg=USSR)
.model KT503a NPN(Is=6.843f Xti=3 Eg=1.11 Vaf=60 Bf=104.8 Ise=70.91f Ne=1.372 Ikf=.4526 Nk=.5243 Xtb=1.5 Br=1.1 Isc=26.4p Nc=2.088 Ikr=1.637 Rb=12 Rc=1.538 Cjc=23.66p Mjc=.33 Vjc=.75 Fc=.5 Cje=30.84p Mje=.33 Vje=.75 Tr=648.9n Tf=10.09n Itf=1 Xtf=2 Vtf=10 mfg=USSR)
.model KT503b NPN(Is=10.07f Xti=3 Eg=1.11 Vaf=60 Bf=166.4 Ise=100.2f Ne=1.452 Ikf=.6117 Nk=.4667 Xtb=1.5 Br=1.7 Isc=47.49f Nc=1.715 Ikr=.7018 Rb=6 Rc=1.208 Cjc=23.66p Mjc=.33 Vjc=.75 Fc=.5 Cje=30.84p Mje=.33 Vje=.75 Tr=390.4n Tf=10.09n Itf=1 Xtf=2 Vtf=40 mfg=USSR)
.model KT503v NPN(Is=6.843f Xti=3 Eg=1.11 Vaf=114 Bf=130.7 Ise=56.77f Ne=1.358 Ikf=.2659 Nk=.4211 Xtb=1.5 Br=1.2 Isc=26.4p Nc=2.088 Ikr=1.637 Rb=6 Rc=1.538 Cjc=23.66p Mjc=.33 Vjc=.75 Fc=.5 Cje=30.84p Mje=.33 Vje=.75 Tr=648.9n Tf=15.39n Itf=1 Xtf=2 Vtf=30 mfg=USSR)
.model KT503g NPN(Is=10.07f Xti=3 Eg=1.11 Vaf=145 Bf=166.4 Ise=100.2f Ne=1.452 Ikf=.6117 Nk=.4667 Xtb=1.5 Br=1.7 Isc=47.49f Nc=1.715 Ikr=.7018 Rb=6 Rc=1.208 Cjc=23.66p Mjc=.33 Vjc=.75 Fc=.5 Cje=30.84p Mje=.33 Vje=.75 Tr=390.4n Tf=10.09n Itf=1 Xtf=2 Vtf=40 mfg=USSR)
.model KT503d NPN(Is=6.843f Xti=3 Eg=1.11 Vaf=129 Bf=106.6 Ise=66.48f Ne=1.384 Ikf=.8419 Nk=.6328 Xtb=1.5 Br=1.2 Isc=26.4p Nc=2.088 Ikr=1.637 Rb=6 Rc=1.538 Cjc=23.66p Mjc=.33 Vjc=.75 Fc=.5 Cje=30.84p Mje=.33 Vje=.75 Tr=648.9n Tf=12.74n Itf=1 Xtf=2 Vtf=30 mfg=USSR)
.model KT503e NPN(Is=6.843f Xti=3 Eg=1.11 Vaf=145.2 Bf=104.8 Ise=70.91f Ne=1.372 Ikf=.4526 Nk=.5243 Xtb=1.5 Br=1.1 Isc=26.4p Nc=2.088 Ikr=1.637 Rb=12 Rc=1.538 Cjc=23.66p Mjc=.33 Vjc=.75 Fc=.5 Cje=30.84p Mje=.33 Vje=.75 Tr=648.9n Tf=10.09n Itf=1 Xtf=2 Vtf=60 mfg=USSR)
.model KT504a NPN(Is=26.98f Xti=3 Eg=1.11 Vaf=138 Bf=209.7 Ise=498.3f Ne=1.412 Ikf=1.14 Nk=.5971 Xtb=1.5 Br=1.93 Isc=275.6f Nc=1.445 Ikr=81.42m Rb=6.7 Rc=.5483 Cjc=38.87p Mjc=.35 Vjc=.75 Fc=.5 Cje=592.8p Mje=.33 Vje=.65 Tr=810.9n Tf=1.867n Itf=10.8 Xtf=2 Vtf=40 mfg=USSR)
.model KT505a PNP(Is=77.95f Xti=3 Eg=1.11 Vaf=98 Bf=242.4 Ise=890f Ne=1.403 Ikf=2.079 Nk=.6286 Xtb=1.5 Br=1.93 Isc=53.03p Nc=1.441 Ikr=81.42m Rb=8.3 Rc=.6239 Cjc=59.15p Mjc=.33 Vjc=.75 Fc=.5 Cje=474.3p Mje=.33 Vje=.65 Tr=810.9n Tf=3.558n Itf=8 Xtf=2 Vtf=40 mfg=USSR)
.model KT602g NPN(IS=14.34f BF=173.4 BR=6.458 ISE=14.34f ISC=10n IKF=0.2689 IKR=0 NE=1.272 NC=2 VAF=74.03 RC=1 RB=10 TF=409.7p TR=48.39n XTF=3 VTF=1.7 ITF=0.6 CJE=22.01p VJE=0.75 MJE=0.377 CJC=9.393p VJC=0.75 MJC=0.3416 FC=0.5 EG=1.11 XTB=1.5 XTI=3 mfg=USSR)
.model KT603a NPN(Is=91.85f Xti=3 Eg=1.11 Vaf=90 Bf=73.42 Ne=1.299 Ise=410f Ikf=1.033 Xtb=1.5 Br=.3123 Nc=2 Isc=1.265p Ikr=.41 Rc=1.17 Rb=12 Cjc=5.646p Mjc=.3443 Vjc=.75 Fc=.5 Cje=28.89p Mje=.283 Vje=.75 Tr=255.1n Tf=389.2p Itf=2.04 Vtf=60 Xtf=2 mfg=USSR)
.model KT603b NPN(Is=91.85f Xti=3 Eg=1.11 Vaf=80 Bf=140.3 Ne=1.299 Ise=410f Ikf=1.033 Xtb=1.5 Br=1.113 Nc=2 Isc=1.265p Ikr=.41 Rc=1.17 Rb=12 Cjc=5.646p Mjc=.3443 Vjc=.75 Fc=.5 Cje=28.89p Mje=.283 Vje=.75 Tr=255.1n Tf=389.2p Itf=2.04 Vtf=60 Xtf=2 mfg=USSR)
.model KT604a NPN(Is=19.56f Xti=3 Eg=1.11 Vaf=110 Bf=109.6 Ne=1.427 Ise=209f Ikf=1.478 Xtb=1.5 Br=.113 Nc=2 Isc=1.265p Ikr=.34 Rc=6.14 Rb=18 Cjc=11.42p Mjc=.3159 Vjc=.75 Fc=.5 Cje=31.04p Mje=.2732 Vje=.75 Tr=1.238u Tf=814.9p Itf=1.27 Vtf=80 Xtf=2 mfg=USSR)
.model KT605a NPN(Is=19.56f Xti=3 Eg=1.11 Vaf=110 Bf=109.6 Ne=1.427 Ise=209f Ikf=1.478 Xtb=1.5 Br=.113 Nc=2 Isc=1.265p Ikr=.34 Rc=6.14 Rb=23 Cjc=11.42p Mjc=.3159 Vjc=.75 Fc=.5 Cje=31.04p Mje=.2732 Vje=.75 Tr=1.238u Tf=814.9p Itf=1.27 Vtf=80 Xtf=2 mfg=USSR)
.model KT608a NPN(Is=1p Vaf=60 Var=8 Bf=80 Ikf=0.4 Nc=4 Ne=4 Rb=3 Re=0.5 Ise=10u Isc=10u Cjc=12p Cje=30p Tr=50n Tf=0.6n mfg=USSR)
.model KT632a PNP(Is=14.34f Xti=3 Eg=1.11 Vaf=106 Bf=157.2 Ise=107f Ne=1.424 Ikf=.1495 Nk=.4496 Xtb=1.5 Br=.85 Isc=8.399p Nc=2.28 Ikr=.1449 Rb=44.3 Rc=3.208 Cjc=9.073p Mjc=.33 Vjc=.7 Fc=.5 Mje=.33 Cje=25.11p Vje=.65 Tr=1.49u Tf=531.4p Itf=65.94m Xtf=.2 Vtf=40 mfg=USSR)
.MODEL KT633A NPN (BF=147 BR=122.9m CJC=5.6p CJE=2p FC=500m IKF=373m IKR=139m IS=9.87f ISC=1.402p ISE=768.7f ITF=9.366m MJC=311m MJE=500m NC=2 NE=1.4778 NF=627.628m RE=2 TF=209p TR=200n VAF=100 VJC=700m VTF=10 XTF=500m mfg=USSR)
.model KT638a NPN(Is=49.43f Xti=3 Eg=1.11 Vaf=120 Bf=156.7 Ise=321.8f Ne=1.45 Ikf=.2839 Nk=.5 Xtb=1.5 Br=.58 Isc=5.44p Nc=2.28 Ikr=.142 Rb=45.2 Rc=4.75 Cjc=12.1p Mjc=.33 Vjc=.75 Fc=.5 Cje=32.14p Mje=.33 Vje=.75 Tr=1.725u Tf=501.7p Itf=24.56m Xtf=95.24m Vtf=40 mfg=USSR)
.model KT653a NPN(Is=44.97f Xti=3 Eg=1.11 Vaf=113.3 Bf=130.5 Ise=466.8f Ne=1.384 Ikf=1.511 Nk=.8169 Xtb=1.5 Br=1.93 Isc=640.4f Nc=1.441 Ikr=81.42m Rb=12 Rc=.6239 Cjc=17p Mjc=.33 Vjc=.75 Fc=.5 Cje=41.5p Mje=.33 Vje=.75 Tr=393.8n Tf=805.3p Itf=1 Xtf=2 Vtf=60 mfg=USSR)
.model KT653b NPN(Is=44.97f Xti=3 Eg=1.11 Vaf=79.03 Bf=179.9 Ise=228.5f Ne=1.363 Ikf=.9461 Nk=.7366 Xtb=1.5 Br=1.93 Isc=640.4f Nc=1.441 Ikr=81.42m Rb=25 Rc=.6239 Cjc=17p Mjc=.33 Vjc=.75 Fc=.5 Cje=41.5p Mje=.33 Vje=.75 Tr=451.8n Tf=715.8p Itf=3 Xtf=2 Vtf=50 mfg=USSR)
.MODEL KT803 NPN(IS=10.0013F BF=188.54 NF=959.516M VAF=100 IKF=999.777M ISE=939.177F NE=1.40628 BR=94.1769M IKR=999.307M ISC=77.4497P NC=2 RC=324.659M CJE=2P MJE=500M CJC=1.5185N VJC=750.012M MJC=501.024M FC=500M TF=3.59562N XTF=508.073M VTF=9.99912 ITF=10.0488N TR=10N EG=1.11 mfg=USSR)
.MODEL KT808 NPN (IS=10F BF=200 NF=959.516M VAF=100 IKF=1000M ISE=1.04781P NE=1.32819 BR=87.768M IKR=1.74259 ISC=134.067F NC=2 RC=304.835M CJE=2P MJE=500M CJC=1.89734N VJC=750.004M MJC=500.866M FC=500M TF=11.3898N XTF=500.953M VTF=9.99941 ITF=15.4469M TR=454.404U EG=1.11 mfg=USSR)
.model KT809a NPN(Is=130.1f Xti=3 Eg=1.11 Vaf=100 Bf=82.09 Ise=217.3p Ne=1.719 Ikf=5.346 Nk=.4488 Xtb=1.5 Br=2.813 Isc=2.51p Nc=1.493 Ikr=1.238 Rc=.1166 Rb=1.5 Cjc=394.4p Mjc=.3333 Vjc=.75 Fc=.5 Cje=1.737n Mje=.33 Vje=.75 Tr=847.7n Tf=24.96n Itf=23.15 Xtf=5 Vtf=60 mfg=USSR)
.model KT812a NPN(Is=74.22f Xti=3 Eg=1.11 Vaf=153 Bf=123.5 Ne=1.754 Ise=172p Ikf=19.27 Xtb=1.5 Br=136.9m Nc=2 Isc=1.142p Ikr=8.53 Rc=.21 Rb=.5 Cjc=352.7p Mjc=.33 Vjc=.75 Fc=.5 Cje=800p Mje=.3395 Vje=.75 Xcjc=0.5 Tr=647.1n Tf=11.34n Itf=.45 Vtf=80 Xtf=2 mfg=USSR)
.model KT812b NPN(Is=43.44f Xti=3 Eg=1.11 Vaf=153 Bf=154.7 Ise=10.38p Ne=1.51 Ikf=26.48 Nk=.8517 Xtb=1.5 Br=1 Isc=1.18p Nc=1.576 Ikr=.32 Rc=.2787 Rb=.2 Cjc=352.7p Mjc=.33 Vjc=.75 Fc=.5 Cje=800p Mje=.33 Vje=.75 Tr=647.1n Tf=11.34n Itf=1.5 Xtf=2 Vtf=80 mfg=USSR)
.model KT830a PNP(Is=40.74f Xti=3 Eg=1.11 Vaf=65 Bf=132.5 Ne=1.782 Ise=3.717p Ikf=.936 Xtb=1.5 Var=40 Br=.626 Nc=2 Isc=3.7p Ikr=.96 Rb=9 Rc=.25 Cjc=131.2p Mjc=.33 Vjc=.75 Fc=.5 Cje=114.7p Mje=.35 Vje=.65 Tr=3.056u Tf=17.31n Itf=.95 Vtf=25 Xtf=2 mfg=USSR)
.model KT830b PNP(Is=40.74f Xti=3 Eg=1.11 Vaf=75 Bf=132.5 Ne=1.782 Ise=3.717p Ikf=.936 Xtb=1.5 Var=40 Br=.626 Nc=2 Isc=3.7p Ikr=.96 Rb=9 Rc=.25 Cjc=131.2p Mjc=.33 Vjc=.75 Fc=.5 Cje=114.7p Mje=.35 Vje=.65 Tr=3.056u Tf=17.31n Itf=.95 Vtf=25 Xtf=2 mfg=USSR)
.model KT830v PNP(Is=40.74f Xti=3 Eg=1.11 Vaf=95 Bf=108.8 Ne=1.731 Ise=3.085p Ikf=1.873 Xtb=1.5 Var=50 Br=0.751 Nc=2 Isc=3.1p Ikr=1.8 Rb=12 Rc=.35 Cjc=131.2p Mjc=.33 Vjc=.75 Fc=.5 Cje=114.7p Mje=.35 Vje=.65 Tr=3.056u Tf=17.31n Itf=1.8 Vtf=50 Xtf=2 mfg=USSR)
.model KT831b NPN(Is=56.47f Xti=3 Eg=1.11 Vaf=83 Bf=236.8 Ne=2.918 Ise=8.105n Ikf=6.154 Xtb=1.5 Var=60 Br=.6713 Nc=2 Isc=2p Ikr=2.04 Rb=8.5 Rc=.27 Cjc=78.34p Mjc=.33 Vjc=.75 Fc=.5 Cje=241.4p Mje=.33 Vje=.65 Tr=2.353u Tf=5.055n Itf=4.09 Vtf=45 Xtf=2 mfg=USSR)
.model KT831v NPN(Is=56.47f Xti=3 Eg=1.11 Vaf=80 Bf=255.7 Ne=2.918 Ise=8.105n Ikf=6.154 Xtb=1.5 Var=60 Br=.6713 Nc=2 Isc=2p Ikr=2.04 Rb=8.5 Rc=.27 Cjc=55.64p Mjc=.33 Vjc=.75 Fc=.5 Cje=181.5p Mje=.33 Vje=.65 Tr=1.223u Tf=5.055n Itf=4.09 Vtf=45 Xtf=2 mfg=USSR)
.model KT831g NPN(Is=56.47f Xti=3 Eg=1.11 Vaf=83 Bf=118.4 Ne=2.918 Ise=16.21n Ikf=6.154 Xtb=1.5 Var=60 Br=.6713 Nc=2 Isc=2p Ikr=2.04 Rb=10.1 Rc=.27 Cjc=78.34p Mjc=.33 Vjc=.75 Fc=.5 Cje=241.4p Mje=.33 Vje=.65 Tr=2.353u Tf=5.055n Itf=4.09 Vtf=45 Xtf=2 mfg=USSR)
.model KT838a NPN(Is=74.22f Xti=3 Eg=1.11 Vaf=153 Bf=123.5 Ne=1.754 Ise=172p Ikf=19.27 Xtb=1.5 Br=136.9m Nc=2 Isc=1.142p Ikr=8.53 Rc=.21 Rb=3.4 Cjc=352.7p Mjc=.33 Vjc=.75 Fc=.5 Cje=800p Mje=.3395 Vje=.75 Xcjc=0.5 Tr=647.1n Tf=11.34n Itf=.45 Vtf=80 Xtf=2 mfg=USSR)
.model KT872A npn Is=10p bf=55 vaf=600 ikf=1.2 nk=612m br=0.1 var=50 ikr=5 bvbe=7 ibvbe=10mA ise=5n ne=2 isc=3.3u nc=4 rb=1 irb=150m rbm=20m rc=50m re=10m cjc=550p vjc=0.90 mjc=0.28 cje=4.7n vje=0.68 mje=0.33 fc=0.56 tf=14n itf=1 vtf=13.7 xtf=5.46 tr=1u gamma=30u qco=90n rco=2 vo=1k BVcbo=1500 nBVcbo=2. mfg=USSR
.model KT841a NPN(Is=114.2f Xti=3 Eg=1.11 Vaf=153 Bf=163.5 Ne=1.547 Ise=1.72p Ikf=7.27 Xtb=1.5 Br=1.36 Nc=2 Isc=1.142p Ikr=1.53 Rc=.21 Rb=1 Cjc=352.7p Mjc=.33 Vjc=.75 Fc=.5 Cje=800p Mje=.3395 Vje=.75 Xcjc=0.5 Tr=647.1n Tf=11.34n Itf=45 Vtf=80 Xtf=2 mfg=USSR)
.model KT842a PNP(Is=120.1f Xti=3 Eg=1.11 Vaf=100 Bf=174.1 Ne=1.498 Ise=1.681p Ikf=5.206 Nk=.5749 Xtb=1.5 Br=1.302 Isc=3.044p Nc=1.426 Ikr=1.064 Rb=1 Rc=.2374 Cjc=557.4p Mjc=.3779 Vjc=.75 Fc=.5 Cje=3.051n Mje=.33 Vje=.75 Tr=825.9n Tf=5.126n Itf=25 Xtf=1.1 Vtf=40 mfg=USSR)
.model KT908a NPN(Is=114.5f Xti=3 Eg=1.11 Vaf=100 Bf=87.62 Ise=1.429p Ne=1.286 Ikf=8.713 Nk=.4649 Xtb=1.5 Br=1.423 Isc=2.393p Nc=1.53 Ikr=.9543 Rc=56.36m Rb=1 Cjc=974.7p Mjc=.3085 Vjc=.75 Fc=.5 Cje=1.737n Mje=.33 Vje=.75 Tr=1.534u Tf=1.984n Itf=18.5 Xtf=3.4 Vtf=50 mfg=USSR)
.model KT908b NPN(Is=114.5f Xti=3 Eg=1.11 Vaf=100 Bf=88.91 Ise=803.2f Ne=1.272 Ikf=9.223 Nk=.4226 Xtb=1.5 Br=1.285 Isc=2.344p Nc=1.542 Ikr=1.09 Rc=69.93m Cjc=974.7p Mjc=.3085 Vjc=.75 Fc=.5 Cje=1.737n Mje=.33 Vje=.75 Tr=1.534u Tf=1.984n Itf=18.5 Xtf=3.4 Vtf=50 mfg=USSR)
.model KT921a NPN(Is=282f Xti=3 Eg=1.11 Vaf=47 Bf=69.37 Ne=1.688 Ise=164.3p Ikf=15.22 Xtb=1.5 Br=.3729 Nc=2 Isc=16.43p Ikr=15.22 Rc=.36 Rb=8 Cjc=103.1p Mjc=.245 Vjc=.75 Fc=.5 Cje=420.7p Mje=.4028 Vje=.75 Tr=838.6n Tf=628.1p Itf=15.33 Vtf=15 Xtf=1.5 mfg=USSR)
.model KT922a NPN(Is=134.9f Xti=3 Eg=1.11 Vaf=81.41 Bf=86.36 Ne=1.362 Ise=1.189p Ikf=1.122 Nk=.5086 Xtb=1.5 Br=1 Isc=6.713n Nc=1.805 Ikr=1.087 Rb=3 Rc=1.308 Cjc=26.72p Mjc=.33 Vjc=.75 Fc=.5 Cje=71.52p Mje=.33 Vje=.75 Tr=272.8n Tf=185.4p Itf=1 Xtf=1.3 Vtf=40 mfg=USSR)
.model KT922b NPN(Is=292.3f Xti=3 Eg=1.11 Vaf=81.41 Bf=84.63 Ne=1.406 Ise=4.199p Ikf=2.359 Nk=.5229 Xtb=1.5 Br=1 Isc=17.13p Nc=1.803 Ikr=1.68 Rb=2 Rc=.9759 Cjc=48.58p Mjc=.33 Vjc=.75 Fc=.5 Cje=153.3p Mje=.33 Vje=.75 Tr=141.3n Tf=211.6p Itf=8 Xtf=.45 Vtf=40 mfg=USSR)
.model KT922v NPN(Is=430.3f Xti=3 Eg=1.11 Vaf=81.41 Bf=84.02 Ne=1.397 Ise=5.318p Ikf=3.706 Nk=.5578 Xtb=1.5 Br=1.734 Isc=7.445p Nc=1.577 Ikr=.166 Rb=3 Rc=.5487 Cjc=121.5p Mjc=.33 Vjc=.75 Fc=.5 Cje=408.7p Mje=.33 Vje=.75 Tr=110.7n Tf=234.7p Itf=30 Xtf=.7 Vtf=40 mfg=USSR)
.model KT928a NPN(Is=16.09f Xti=3 Eg=1.11 Vaf=81.41 Bf=127.5 Ise=85.22f Ne=1.284 Ikf=.2716 Nk=.4931 Xtb=1.5 Br=1 Isc=57.65p Nc=2.096 Ikr=1.637 Rb=11 Rc=1.538 Cjc=14.57p Mjc=.33 Vjc=.75 Fc=.5 Cje=78.2p Mje=.33 Vje=.75 Tr=402n Tf=373.8p Itf=1 Xtf=2 Vtf=40 mfg=USSR)
.model KT928b NPN(Is=16.09f Xti=3 Eg=1.11 Vaf=81.41 Bf=247.7 Ise=143.2f Ne=1.385 Ikf=.3491 Nk=.5807 Xtb=1.5 Br=1.2 Isc=57.65p Nc=2.096 Ikr=1.637 Rb=12 Rc=1.654 Cjc=14.57p Mjc=.33 Vjc=.75 Fc=.5 Cje=78.2p Mje=.33 Vje=.75 Tr=279.5n Tf=373.8p Itf=1 Xtf=2 Vtf=40 mfg=USSR)
.model KT933a PNP(Is=18.19f Xti=3 Eg=1.11 Vaf=78 Bf=122.8 Ise=86.44f Ne=1.284 Ikf=.2819 Nk=.4822 Xtb=1.5 Br=1 Isc=57.65p Nc=2.096 Ikr=1.637 Rb=11 Rc=1.538 Cjc=39.2p Mjc=.4435 Vjc=.75 Fc=.5 Cje=23.31p Mje=.201 Vje=.75 Tr=202.1n Tf=313.9p Itf=2.51 Xtf=1.52 Vtf=40 mfg=USSR)
.model KT945a NPN(Is=300.3f Xti=3 Eg=1.11 Vaf=95.7 Bf=193.9 Ise=2.284p Ne=1.377 Ikf=21.59 Nk=.7771 Xtb=1.5 Br=1.216 Isc=8.999p Nc=1.514 Ikr=.7536 Rc=.1198 Cjc=525.9p Mjc=.3229 Vjc=.75 Fc=.5 Cje=3.794n Mje=.33 Vje=.75 Tr=1.695u Tf=2.465n Itf=15 Xtf=2 Vtf=40 mfg=USSR)
.model KT945b NPN(Is=350f Xti=3 Eg=1.11 Vaf=95.7 Bf=193.9 Ise=2.284p Ne=1.377 Ikf=21.59 Nk=.7771 Xtb=1.5 Br=1.216 Isc=8.999p Nc=1.514 Ikr=.7536 Rc=.1198 Cjc=525.9p Mjc=.3229 Vjc=.75 Fc=.5 Cje=3.794n Mje=.33 Vje=.75 Tr=1.695u Tf=2.465n Itf=15 Xtf=2 Vtf=40 mfg=USSR)
.model KT968a NPN(Is=89.93f Xti=3 Eg=1.11 Vaf=86 Bf=184.1 Ise=573.9f Ne=1.436 Ikf=44.6m Nk=.4867 Xtb=1.5 Br=1 Isc=25.95p Nc=1.425 Ikr=2.599 Rb=27 Rc=.701 Cjc=13.31p Mjc=.5595 Vjc=.75 Fc=.5 Cje=34.2p Mje=.33 Vje=.75 Tr=1.045u Tf=1.325n Itf=3 Xtf=2 Vtf=20 mfg=USSR)
.MODEL KT969 NPN (IS=9.92442F BF=663.402 NF=1.09115 VAF=140.7 IKF=10.0012M ISE=7.03949P NE=2.14133 BR=99.8802M IKR=999.872M ISC=1.01247P NC=2 RE=2 RC=759.979M CJE=9.45723P VJE=690M MJE=564.978M CJC=9.45723P VJC=690M MJC=564.978M TF=1.26995N XTF=622.054M VTF=21.0569 ITF=34.701M TR=10N mfg=USSR)
.MODEL KT9115 PNP (IS=9.76087F BF=290.589 NF=1.02655 VAF=100 IKF=97.7242M ISE=155.803F NE=1.70173 BR=1.99753 IKR=10M ISC=99.9881P RE=2.02804 RC=160.272M CJE=45.8458P VJE=699.999M MJE=500.813M CJC=12.0342P VJC=1 MJC=482.727M FC=500M TF=1.61261N XTF=499.997M VTF=10 ITF=10.023M TR=10N Vceo=300 Icrating=0.1 mfg=USSR)
.model KT3108a PNP(Is=1.41f Xti=3 Eg=1.11 Vaf=87 Bf=112.7 Ne=3.346 Ise=114.2p Ikf=31.92m Xtb=1.5 Br=1.883 Nc=2 Isc=114f Ikr=31m Rc=4.25 Rb=52 Cjc=4.372p Mjc=.33 Vjc=.75 Fc=.5 Cje=3.714p Mje=.33 Vje=.75 Tr=67.31n Tf=344.1p Itf=56m Vtf=45 Xtf=1.5 mfg=USSR)
.model KT3108b PNP(Is=863E-18 Xti=3 Eg=1.11 Vaf=85 Bf=112.4 Ne=12.53 Ise=37.65n Ikf=27.99m Xtb=1.5 Var=26 Br=2.984 Nc=2 Isc=1.25p Ikr=56m Rb=52 Rc=4.24 Cjc=4.529p Vjc=.65 Mjc=.33 Fc=.5 Cje=3.763p Vje=.69 Mje=.33 Tr=43.55n Tf=292.3p Itf=58m Vtf=55 Xtf=2 mfg=USSR)