* Simple Gain block
*
* Parameter :
* - K : Gain value
*
.Subckt Gain In Out Params: K=1
*
EGain Out 0 In 0 {K}
*
.EndS Gain
