.subckt Rseries 1 2 3
R1 1 2 1E10
GB1 1 2 Value = { V(1,2)/(V(3)+1u) }
.ENDS
