.SUBCKT VARICAP 1 2 CTRL
R1 1 3 1u
VC 3 4
EBC 4 2 Value = { (1/v(ctrl))*v(int) }
GINT 0 INT Value = { I(VC) }
CINT INT 0 1
Rdum INT 0 10E10
.ENDS