**** SINGLE WINDING TRANSFORMER ****
.SUBCKT XFMR1 1 2 3 4 PARAMS: RATIO=1
RP 1 2 1MEG
E 5 4 VALUE = { V(1,2)*RATIO }
G 1 2 VALUE = { I(VM)*RATIO }
RS 6 3 1U
VM 5 6
.ENDS XFMR1
********