.subckt 174ps4 11 13 7 8 10 12 1_4_6_9_14 2 3 5
*D1 N005 N006 Dps
*D2 N006 1_4_6_9_14 Dps
D2 N005 1_4_6_9_14 Dps n=2
*D3 N001 N004 Dps
*D4 N004 N005 Dps
D4 N001 N005 Dps n=2
R1 13 N005 3.3k
R2 11 N005 3.3k
Q2 N002 11 10 0 NPNps
Q1 3 7 N002 0 NPNps
Q3 2 8 N002 0 NPNps
R3 7 N001 2.2k
Q5 N003 13 12 0 NPNps
Q4 3 8 N003 0 NPNps
Q6 2 7 N003 0 NPNps
R4 10 1_4_6_9_14 1.4k
R5 12 1_4_6_9_14 1.4k
R6 8 N001 2.2k
R7 5 N001 8k
..model Dps d Cjo=0.5p n=1.163
.model NPNps npn Cje=0.15p Cjc=0.15p Xcjc=0.5 Rb=50 BF=100 tf=0.025n tr=1n
+ VAF=30  cjs=0.15p
.ends 174ps4
