*  74hct.lib
*
*  74HCTxxx Model libraray for LTSPICE from www.linear.com/software
*  
*
*  Based on revision 0.56 08/21/2003 of 74HCxxx library  
*  Revision 0.57 02/04/2005
*
*
*  All parts have been divided into three sections.
*  
*  >--| FILTER/LEVEL |----| 1V-LOGIC Axx |----| OUTPUT LEVEL |-->
*
*  Delays are given for Vcc = 2V/4.5V/6V (HC)  and 4.5V(HCT) from the
*  Philips data sheets. http://www.philipslogic.com
*
*  Used delay:  Td = (Tpd-Tr/2)*(4.5-0.5)/(Vcc-0.5)
*  The gate delay has to be set to tpd minus 3ns for the input filter
*  and another minus 3ns for Trise/2
*    td1 = tpd  - 3ns - 3ns 
*
*       HC           HCT
* txx  t2/t4.5/t6    t4.5
*
*
* 2-input NAND gate
* tpd 25n/9n/7n   12n
* tr 19n/7n/6n     7n
.SUBCKT 74HCT00  A B Y  VCC VGND  vcc1={vcc} speed1={speed} tripdt1={tripdt} 
.param td1=1e-9*(12-3-3)*4.0/({vcc1}-0.5)*{speed1}
*
XIN1  A Ai  VCC VGND  74HCT_IN_1  vcc2={vcc1}  speed2={speed1}  tripdt2={tripdt1} 
XIN2  B Bi  VCC VGND  74HCT_IN_1  vcc2={vcc1}  speed2={speed1}  tripdt2={tripdt1} 
*  tripdt=1n
A1  Ai Bi 0 0 0  Yi 0 0  AND  tripdt={tripdt1}  td={td1} 
*
XOUT  Yi Y  VCC VGND  74HCT_OUT_1X  vcc2={vcc1} speed2={speed1}  tripdt2={tripdt1}
.ends
*
*
*
* 2-input NOR gate
* tpd 25n/9n/7n     11n
* tr 19n/7n/6n       7n
.SUBCKT 74HCT02  A B Y  VCC VGND  vcc1={vcc} speed1={speed} tripdt1={tripdt}
.param td1=1e-9*(11-3-3)*4.0/({vcc1}-0.5)*{speed1}
*
XIN1  A Ai  VCC VGND  74HCT_IN_1  vcc2={vcc1}  speed2={speed1}  tripdt2={tripdt1} 
XIN2  B Bi  VCC VGND  74HCT_IN_1  vcc2={vcc1}  speed2={speed1}  tripdt2={tripdt1} 
*
A1  Ai Bi 0 0 0  Yi 0 0  OR  tripdt={tripdt1}  td={td1}  
*
XOUT  Yi Y  VCC VGND  74HCT_OUT_1X  vcc2={vcc1} speed2={speed1}  tripdt2={tripdt1}
.ends
*
*
*
* 2-input NAND gate with open drain output
* tpd 28n/10n/8n  12n
* tr 19n/7n/6n     7n
.SUBCKT 74HCT03  A B Y  VCC VGND  vcc1={vcc} speed1={speed} tripdt1={tripdt} 
.param td1=1e-9*(12-3-3)*4.0/({vcc1}-0.5)*{speed1}
*
XIN1  A Ai  VCC VGND  74HCT_IN_1  vcc2={vcc1}  speed2={speed1}  tripdt2={tripdt1} 
XIN2  B Bi  VCC VGND  74HCT_IN_1  vcc2={vcc1}  speed2={speed1}  tripdt2={tripdt1} 
*  tripdt=1n
A1  Ai Bi 0 0 0  Yi 0 0  AND  tripdt={tripdt1}  td={td1} 
*
XOUT  Yi Y  VCC VGND  74HCT_OUT_OD_1X  vcc2={vcc1} speed2={speed1}  tripdt2={tripdt1}
.ends
*
*
*
* Inverter gate
* tpd 25n/9n/7n    10n
* tr 19n/7n/6n      7n
.SUBCKT 74HCT04  A Y  VCC VGND  vcc1={vcc} speed1={speed} tripdt1={tripdt}
.param td1=1e-9*(10-3-3)*4.0/({vcc1}-0.5)*{speed1}
*
XIN  A Ai  VCC VGND  74HCT_IN_1  vcc2={vcc1}  speed2={speed1}  tripdt2={tripdt1} 
*
A1  Ai 0 0 0 0  Yi 0 0  BUF  tripdt={tripdt1}  td={td1}  
*
XOUT  Yi Y  VCC VGND  74HCT_OUT_1X  vcc2={vcc1} speed2={speed1}  tripdt2={tripdt1}
.ends
*
*
*
* 2-input AND gate
* tpd 25n/9n/7n     14n
* tr 19n/7n/6n       7n
.SUBCKT 74HCT08  A B Y  VCC VGND  vcc1={vcc} speed1={speed} tripdt1={tripdt}
.param td1=1e-9*(14-3-3)*4.0/({vcc1}-0.5)*{speed1}
*
XIN1  A Ai  VCC VGND  74HCT_IN_1  vcc2={vcc1}  speed2={speed1}  tripdt2={tripdt1} 
XIN2  B Bi  VCC VGND  74HCT_IN_1  vcc2={vcc1}  speed2={speed1}  tripdt2={tripdt1} 
*
A1  Ai Bi 0 0 0  0 Yi 0  AND  tripdt={tripdt1}  td={td1}  
*
XOUT  Yi Y  VCC VGND  74HCT_OUT_1X  vcc2={vcc1} speed2={speed1}  tripdt2={tripdt1}
.ends
*
*
*
* 3-input NAND gate
* tpd 30n/11n/9n    14n
* tr 19n/7n/6n       7n
.SUBCKT 74HCT10  A B C Y  VCC VGND  vcc1={vcc} speed1={speed} tripdt1={tripdt}
.param td1=1e-9*(14-3-3)*4.0/({vcc1}-0.5)*{speed1}
*
XIN1  A Ai  VCC VGND  74HCT_IN_1  vcc2={vcc1}  speed2={speed1}  tripdt2={tripdt1} 
XIN2  B Bi  VCC VGND  74HCT_IN_1  vcc2={vcc1}  speed2={speed1}  tripdt2={tripdt1} 
XIN3  C Ci  VCC VGND  74HCT_IN_1  vcc2={vcc1}  speed2={speed1}  tripdt2={tripdt1} 
*
A1  Ai Bi Ci 0 0  Yi 0 0  AND  tripdt={tripdt1}  td={td1}
*
XOUT  Yi Y  VCC VGND  74HCT_OUT_1X  vcc2={vcc1} speed2={speed1}  tripdt2={tripdt1}
.ends
*
*
*
* 3-input AND gate
* tpd 32n/12n/10n   16n
* tr 19n/7n/6n       7n
.SUBCKT 74HCT11  A B C Y  VCC VGND  vcc1={vcc} speed1={speed} tripdt1={tripdt}
.param td1=1e-9*(16-3-3)*4.0/({vcc1}-0.5)*{speed1}
*
XIN1  A Ai  VCC VGND  74HCT_IN_1  vcc2={vcc1}  speed2={speed1}  tripdt2={tripdt1} 
XIN2  B Bi  VCC VGND  74HCT_IN_1  vcc2={vcc1}  speed2={speed1}  tripdt2={tripdt1} 
XIN3  C Ci  VCC VGND  74HCT_IN_1  vcc2={vcc1}  speed2={speed1}  tripdt2={tripdt1} 
*
A1  Ai Bi Ci 0 0  0 Yi 0  AND  tripdt={tripdt1}  td={td1}
XOUT  Yi Y  VCC VGND  74HCT_OUT_1X  vcc2={vcc1} speed2={speed1}  tripdt2={tripdt1}
.ends
*
*
*
* Schmitt-inverter gate
* tpd 41n/15n/12n    20n
* tr 19n/7n/6n        7n
* VT+ 1.18/2.38/3.14
* VT- 0.52/1.4/1.89
.SUBCKT 74HCT14  A Y  VCC VGND  vcc1={vcc} speed1={speed} tripdt1={tripdt}
.param td1=1e-9*(20-3-3)*4.0/({vcc1}-0.5)*{speed1}
*
XIN  A Ai  VCC VGND  74HCT_IN_S_1  vcc2={vcc1} speed2={speed1}  tripdt2={tripdt1} 
*
A1  Ai 0 0 0 0  Yi 0 0  BUF  tripdt={tripdt1}  td={td1}
* 
XOUT  Yi Y  VCC VGND  74HCT_OUT_1X  vcc2={vcc1} speed2={speed1}  tripdt2={tripdt1}
.ends
*
*
*
* 4-input NAND gate
* tpd 28n/10n/8n    16n
* tr 19n/7n/6n       7n
.SUBCKT 74HCT20  A B C D Y  VCC VGND  vcc1={vcc} speed1={speed} tripdt1={tripdt}
.param td1=1e-9*(16-3-3)*4.0/({vcc1}-0.5)*{speed1}
*
XIN1  A Ai  VCC VGND  74HCT_IN_1  vcc2={vcc1}  speed2={speed1}  tripdt2={tripdt1} 
XIN2  B Bi  VCC VGND  74HCT_IN_1  vcc2={vcc1}  speed2={speed1}  tripdt2={tripdt1} 
XIN3  C Ci  VCC VGND  74HCT_IN_1  vcc2={vcc1}  speed2={speed1}  tripdt2={tripdt1} 
XIN4  D Di  VCC VGND  74HCT_IN_1  vcc2={vcc1}  speed2={speed1}  tripdt2={tripdt1} 
*
A1  Ai Bi Ci Di 0  Yi 0 0  AND  tripdt={tripdt1}  td={td1} 
* 
XOUT  Yi Y  VCC VGND  74HCT_OUT_1X  vcc2={vcc1} speed2={speed1}  tripdt2={tripdt1}
.ends
*
*
*
* 4-input AND gate
* tpd 33n/12n/10n    15n
* tr 19n/7n/6n        7n
.SUBCKT 74HCT21  A B C D Y  VCC VGND  vcc1={vcc} speed1={speed} tripdt1={tripdt}
.param td1=1e-9*(15-3-3)*4.0/({vcc1}-0.5)*{speed1}
*
XIN1  A Ai  VCC VGND  74HCT_IN_1  vcc2={vcc1}  speed2={speed1}  tripdt2={tripdt1}
XIN2  B Bi  VCC VGND  74HCT_IN_1  vcc2={vcc1}  speed2={speed1}  tripdt2={tripdt1} 
XIN3  C Ci  VCC VGND  74HCT_IN_1  vcc2={vcc1}  speed2={speed1}  tripdt2={tripdt1} 
XIN4  D Di  VCC VGND  74HCT_IN_1  vcc2={vcc1}  speed2={speed1}  tripdt2={tripdt1} 
*
A1  Ai Bi Ci Di 0  0 Yi 0  AND  tripdt={tripdt1}  td={td1}
*
XOUT  Yi Y  VCC VGND  74HCT_OUT_1X  vcc2={vcc1} speed2={speed1}  tripdt2={tripdt1}
.ends
*
*
*
* 3-input NOR gate
* tpd 28n/10n/8n    12n    
* tr 19n/7n/6n       7n
.SUBCKT 74HCT27  A B C Y  VCC VGND  vcc1={vcc} speed1={speed} tripdt1={tripdt}
.param td1=1e-9*(12-3-3)*4.0/({vcc1}-0.5)*{speed1}
*
XIN1  A Ai  VCC VGND  74HCT_IN_1  vcc2={vcc1}  speed2={speed1}  tripdt2={tripdt1} 
XIN2  B Bi  VCC VGND  74HCT_IN_1  vcc2={vcc1}  speed2={speed1}  tripdt2={tripdt1} 
XIN3  C Ci  VCC VGND  74HCT_IN_1  vcc2={vcc1}  speed2={speed1}  tripdt2={tripdt1} 
*
A1  Ai Bi Ci 0 0  Yi 0 0  OR  tripdt={tripdt1}  td={td1}
*
XOUT  Yi Y  VCC VGND  74HCT_OUT_1X  vcc2={vcc1} speed2={speed1}  tripdt2={tripdt1}
.ends
*
*
*
* 8-input NAND gate
* tpd 41n/15n/12n    16n  
* tr 19n/7n/6n        7n
.SUBCKT 74HCT30  A B C D E F G H Y  VCC VGND  vcc1={vcc} speed1={speed} tripdt1={tripdt}
.param td1=1e-9*(16-3-3)*4.0/({vcc1}-0.5)*{speed1}
*
XIN1  A Ai  VCC VGND  74HCT_IN_1  vcc2={vcc1}  speed2={speed1}  tripdt2={tripdt1} 
XIN2  B Bi  VCC VGND  74HCT_IN_1  vcc2={vcc1}  speed2={speed1}  tripdt2={tripdt1} 
XIN3  C Ci  VCC VGND  74HCT_IN_1  vcc2={vcc1}  speed2={speed1}  tripdt2={tripdt1} 
XIN4  D Di  VCC VGND  74HCT_IN_1  vcc2={vcc1}  speed2={speed1}  tripdt2={tripdt1} 
XIN5  E Ei  VCC VGND  74HCT_IN_1  vcc2={vcc1}  speed2={speed1}  tripdt2={tripdt1} 
XIN6  F Fi  VCC VGND  74HCT_IN_1  vcc2={vcc1}  speed2={speed1}  tripdt2={tripdt1} 
XIN7  G Gi  VCC VGND  74HCT_IN_1  vcc2={vcc1}  speed2={speed1}  tripdt2={tripdt1} 
XIN8  H Hi  VCC VGND  74HCT_IN_1  vcc2={vcc1}  speed2={speed1}  tripdt2={tripdt1} 
*
A1  Ai Bi Ci Di Ei  0  y1 0  AND  tripdt={tripdt1} 
A2  Fi Gi Hi y1 0   Yi 0  0  AND  tripdt={tripdt1}  td={td1}
*
XOUT  Yi Y  VCC VGND  74HCT_OUT_1X  vcc2={vcc1} speed2={speed1}  tripdt2={tripdt1}
.ends
*
*
*
* 2-input OR gate
* tpd 22n/8n/6n     11n
* tr 19n/7n/6n       7n
.SUBCKT 74HCT32  A B Y  VCC VGND  vcc1={vcc} speed1={speed} tripdt1={tripdt}
.param td1=1e-9*(11-3-3)*4.0/({vcc1}-0.5)*{speed1}
*
XIN1  A Ai  VCC VGND  74HCT_IN_1  vcc2={vcc1}  speed2={speed1}  tripdt2={tripdt1} 
XIN2  B Bi  VCC VGND  74HCT_IN_1  vcc2={vcc1}  speed2={speed1}  tripdt2={tripdt1} 
*
A1  Ai Bi 0 0 0  0 Yi 0  OR  tripdt={tripdt1}  td={td1}
* 
XOUT  Yi Y  VCC VGND  74HCT_OUT_1X  vcc2={vcc1} speed2={speed1}  tripdt2={tripdt1}
.ends
*
*
*
* 2x3-input AND NOR gate
* tpd 36n/13n/10n ?=74HC58?    16n estimated
* tr 19n/7n/6n                  7n
.SUBCKT 74HCT51  A B C D E F Y  VCC VGND  vcc1={vcc} speed1={speed} tripdt1={tripdt}
.param td1=1e-9*(16-3-3)*4.0/({vcc1}-0.5)*{speed1}
*
XIN1  A Ai  VCC VGND  74HCT_IN_1  vcc2={vcc1}  speed2={speed1}  tripdt2={tripdt1} 
XIN2  B Bi  VCC VGND  74HCT_IN_1  vcc2={vcc1}  speed2={speed1}  tripdt2={tripdt1} 
XIN3  C Ci  VCC VGND  74HCT_IN_1  vcc2={vcc1}  speed2={speed1}  tripdt2={tripdt1} 
XIN4  D Di  VCC VGND  74HCT_IN_1  vcc2={vcc1}  speed2={speed1}  tripdt2={tripdt1} 
XIN5  E Ei  VCC VGND  74HCT_IN_1  vcc2={vcc1}  speed2={speed1}  tripdt2={tripdt1} 
XIN6  F Fi  VCC VGND  74HCT_IN_1  vcc2={vcc1}  speed2={speed1}  tripdt2={tripdt1} 
*
A1  Ai Bi Ci 0 0  0 y1 0  AND  tripdt={tripdt1}  
A2  Di Ei Fi 0 0  0 y2 0  AND  tripdt={tripdt1} 
A3  y1 y2 0  0 0  Yi 0 0  OR  tripdt={tripdt1}  td={td1}
*
XOUT  Yi Y  VCC VGND  74HCT_OUT_1X  vcc2={vcc1} speed2={speed1}  tripdt2={tripdt1}
.ends
*
*
*
* 2x3-input AND OR gate
* tpd 36n/13n/10n     16n estimated
* tr 19n/7n/6n         7n
.SUBCKT 74HCT58  A B C D E F Y  VCC VGND  vcc1={vcc} speed1={speed} tripdt1={tripdt}
.param td1=1e-9*(16-3-3)*4.0/({vcc1}-0.5)*{speed1}
*
XIN1  A Ai  VCC VGND  74HCT_IN_1  vcc2={vcc1}  speed2={speed1}  tripdt2={tripdt1} 
XIN2  B Bi  VCC VGND  74HCT_IN_1  vcc2={vcc1}  speed2={speed1}  tripdt2={tripdt1} 
XIN3  C Ci  VCC VGND  74HCT_IN_1  vcc2={vcc1}  speed2={speed1}  tripdt2={tripdt1} 
XIN4  D Di  VCC VGND  74HCT_IN_1  vcc2={vcc1}  speed2={speed1}  tripdt2={tripdt1} 
XIN5  E Ei  VCC VGND  74HCT_IN_1  vcc2={vcc1}  speed2={speed1}  tripdt2={tripdt1} 
XIN6  F Fi  VCC VGND  74HCT_IN_1  vcc2={vcc1}  speed2={speed1}  tripdt2={tripdt1} 
*
A1  Ai Bi Ci 0 0  0 y1 0  AND  tripdt={tripdt1}  
A2  Di Ei Fi 0 0  0 y2 0  AND  tripdt={tripdt1} 
A3  y1 y2 0  0 0  0 Yi 0  OR  tripdt={tripdt1}  td={td1}
*
XOUT  Yi Y VCC VGND  74HCT_OUT_1X  vcc2={vcc1} speed2={speed1}  tripdt2={tripdt1}
.ends
*
*
*
* D-filp-flop with asynchronous set and reset
* CP->Q Tpd 47n/17n/14n     18n
* R/S->Q Tpd 52n/19n/15n    23n
* CP/R/S Tw 19n/7n/6n        9n
* D->CP Ts 6n/2n/2n          5n
* D->CP Th -6n/-2n/-2n      -3n
* R,S Trem 3n/1n/1n          1n
.SUBCKT 74HCT74  S C D R Q QN  VCC VGND  vcc1={vcc} speed1={speed} tripdt1={tripdt}
.param td1=1e-9*(18-5-3-3)*4.0/({vcc1}-0.5)*{speed1}
.param td2=1e-9*(23-5-3-3)*4.0/({vcc1}-0.5)*{speed1}
.param td3=1e-9*(18+2-5-3-3)*4.0/({vcc1}-0.5)*{speed1}
.param td4=1e-9*(5)*4.0/({vcc1}-0.5)*{speed1}
*
XIN1  S Si  VCC VGND  74HCT_IN_1  vcc2={vcc1}  speed2={speed1}  tripdt2={tripdt1} 
XIN2  C Ci  VCC VGND  74HCT_IN_1  vcc2={vcc1}  speed2={speed1}  tripdt2={tripdt1} 
XIN3  D Di  VCC VGND  74HCT_IN_1  vcc2={vcc1}  speed2={speed1}  tripdt2={tripdt1} 
XIN4  R Ri  VCC VGND  74HCT_IN_1  vcc2={vcc1}  speed2={speed1}  tripdt2={tripdt1} 
*
ACDEL  Ci 0 0  0  0   0   Cp 0  BUF  tripdt={tripdt1}  td={td1} 
ADDEL  Di 0 0  0  0   0   Dp 0  BUF  tripdt={tripdt1}  td={td3} 
ARINV  Ri 0 0  0  0   Rn  0  0  BUF  tripdt={tripdt1}  td={td2}
ASINV  Si 0 0  0  0   Sn  0  0  BUF  tripdt={tripdt1}  td={td2}
A1     Di 0 Cp Sn Rn  QNi Qi 0  DFLOP  tripdt={tripdt1} td={td4}
*
XOUT1  Qi  Q   VCC VGND  74HCT_OUT_1X  vcc2={vcc1} speed2={speed1}  tripdt2={tripdt1}
XOUT2  QNi QN  VCC VGND  74HCT_OUT_1X  vcc2={vcc1} speed2={speed1}  tripdt2={tripdt1}
.ends
*
*
*
* 2-input EXOR gate
* tpd 39n/14n/11n     17n
* tr 19n/7n/6n         7n
.SUBCKT 74HCT86  A B Y  VCC VGND  vcc1={vcc} speed1={speed} tripdt1={tripdt}
.param td1=1e-9*(17-3-3)*4.0/({vcc1}-0.5)*{speed1}
*
XIN1  A Ai  VCC VGND  74HCT_IN_1  vcc2={vcc1}  speed2={speed1}  tripdt2={tripdt1} 
XIN2  B Bi  VCC VGND  74HCT_IN_1  vcc2={vcc1}  speed2={speed1}  tripdt2={tripdt1} 
*
A1  Ai Bi 0 0 0  0 Yi 0  XOR  tripdt={tripdt1}  td={td1}  
*
XOUT  Yi Y  VCC VGND  74HCT_OUT_1X  vcc2={vcc1} speed2={speed1}  tripdt2={tripdt1}
.ends
*
*
*
* JK-flipflop with asynchronous set and reset; neg. edge
* CP->Q Tpd 52n/19n/15n    21n
* R/S->Q Tpd 52n/19n/15n   20n   
* CP/R/S Tw 22n/8n/6n      9n/11n
* D->CP Ts 22n/8n/6n       7n
* D->CP Th -6n/-2n/-2n     -2n
* R,S->CP Trem 19n/7n/6n   8n
.SUBCKT 74HCT107  J C K R Q QN  VCC VGND  vcc1={vcc} speed1={speed} tripdt1={tripdt}
.param td1=1e-9*(21-3-3)*4.0/({vcc1}-0.5)*{speed1}
*
XIN1  J Ji  VCC VGND  74HCT_IN_1  vcc2={vcc1}  speed2={speed1}  tripdt2={tripdt1} 
XIN2  C Ci  VCC VGND  74HCT_IN_1  vcc2={vcc1}  speed2={speed1}  tripdt2={tripdt1} 
XIN3  K Ki  VCC VGND  74HCT_IN_1  vcc2={vcc1}  speed2={speed1}  tripdt2={tripdt1} 
XIN4  R Ri  VCC VGND  74HCT_IN_1  vcc2={vcc1}  speed2={speed1}  tripdt2={tripdt1} 
*
ACINV  Ci 0 0 0 0  Cn 0 0  BUF  tripdt={tripdt1}
ARINV  Ri 0 0 0 0  Rn 0 0  BUF  tripdt={tripdt1}
AKINF  Ki 0 0 0 0  Kn 0 0  BUF  tripdt={tripdt1}
AJINF  Ji 0 0 0 0  Jn 0 0  BUF  tripdt={tripdt1}
* Ji=1, Ki=0    Q=1
* Ji=1, Ki=1    Q=toggle
* Ji=0, Ki=0    Q=no change
* Ji=0, Ki=1    Q=0  
A11   Ji Kn 0   0 0  0 D1 0  AND  tripdt={tripdt1}
A10   Ji Ki QNi 0 0  0 D2 0  AND  tripdt={tripdt1}
A01   Jn Kn Qi  0 0  0 D3 0  AND  tripdt={tripdt1} 
AOR3  D1 D2 D3  0 0  0 Di 0  OR  tripdt={tripdt1}
AFP   Di 0 Cn 0 Rn  QNi Qi 0  DFLOP  tripdt={tripdt1}  td={td1} 
*
XOUT1  Qi Q    VCC VGND  74HCT_OUT_1X  vcc2={vcc1} speed2={speed1}  tripdt2={tripdt1}
XOUT2  QNi QN  VCC VGND  74HCT_OUT_1X  vcc2={vcc1} speed2={speed1}  tripdt2={tripdt1}
.ends
*
*
*
* JK-flipflop with asynchronous set and reset; pos. edge
* CP->Q Tpd 50n/18n/14n     20n
* R/S->Q Tpd 41n/15n/12n    19n   
* CP/R/S Tw 19n/7n/6n        8n
* D->CP Ts 17n/6n/5n         8n
* D->Cp Th -6n/-2n/-2n      -3n
* R/S->CP Trem 19n/7n/6n     8n
.SUBCKT 74HCT109  S J C K R Q QN  VCC VGND  vcc1={vcc} speed1={speed} tripdt1={tripdt}
.param td1=1e-9*(20-3-3)*4.0/({vcc1}-0.5)*{speed1}
*   A1 j k c s r qn q 0 JKFLOP td={td1}
XIN1  S Si  VCC VGND  74HCT_IN_1  vcc2={vcc1}  speed2={speed1}  tripdt2={tripdt1} 
XIN2  J Ji  VCC VGND  74HCT_IN_1  vcc2={vcc1}  speed2={speed1}  tripdt2={tripdt1} 
XIN3  C Ci  VCC VGND  74HCT_IN_1  vcc2={vcc1}  speed2={speed1}  tripdt2={tripdt1} 
XIN4  K Ki  VCC VGND  74HCT_IN_1  vcc2={vcc1}  speed2={speed1}  tripdt2={tripdt1} 
XIN5  R Ri  VCC VGND  74HCT_IN_1  vcc2={vcc1}  speed2={speed1}  tripdt2={tripdt1} 
*
ARINV  Ri 0 0 0 0  Rn 0 0  BUF  tripdt={tripdt1}
ASINV  Si 0 0 0 0  Sn 0 0  BUF  tripdt={tripdt1}
AKINF  Ki 0 0 0 0  Kn 0 0  BUF  tripdt={tripdt1}
AJINF  Ji 0 0 0 0  Jn 0 0  BUF  tripdt={tripdt1}
* Ji=1, Ki=1    Q=1
* Ji=1, Ki=0    Q=toggle
* Ji=0, Ki=1    Q=no change
* Ji=0, Ki=0    Q=0  
A11   Ji Ki 0   0 0  0 D1 0  AND  tripdt={tripdt1}
A10   Ji Kn QNi 0 0  0 D2 0  AND  tripdt={tripdt1}
A01   Jn Ki Qi  0 0  0 D3 0  AND  tripdt={tripdt1} 
AOR3  D1 D2 D3  0 0  0 Di 0  OR  tripdt={tripdt1}
AFP   Di 0 Ci Sn Rn  QNi Qi 0  DFLOP  tripdt={tripdt1}  td={td1} 
*
XOUT1  Qi Q    VCC VGND  74HCT_OUT_1X  vcc2={vcc1} speed2={speed1}  tripdt2={tripdt1}
XOUT2  QNi QN  VCC VGND  74HCT_OUT_1X  vcc2={vcc1} speed2={speed1}  tripdt2={tripdt1}
.ends
*
*
*
* JK-flipflop with asynchronous set and reset; neg. edge
* CP->Q Tpd 55n/20n/16n      23n
* R/S->Q Tpd 58n/21n/17n     22n
* CP/R/S Tw 22n/8n/6n        10n
* J,K->CP Ts 19n/7n/6n       7n
* J,K->CP Th -11n/-4n/-3n   -7n
* R Trem 22n/8n/6n           11n
* S Trem -19n/-7n/-6n        -8n
.SUBCKT 74HCT112  S J C K R Q QN  VCC VGND  vcc1={vcc} speed1={speed} tripdt1={tripdt}
.param td1=1e-9*(23-3-3)*4.0/({vcc1}-0.5)*{speed1}
*   A1 j k c s r qn q 0 JKFLOP td={td1}
XIN1  S Si  VCC VGND  74HCT_IN_1  vcc2={vcc1}  speed2={speed1}  tripdt2={tripdt1} 
XIN2  J Ji  VCC VGND  74HCT_IN_1  vcc2={vcc1}  speed2={speed1}  tripdt2={tripdt1} 
XIN3  C Ci  VCC VGND  74HCT_IN_1  vcc2={vcc1}  speed2={speed1}  tripdt2={tripdt1} 
XIN4  K Ki  VCC VGND  74HCT_IN_1  vcc2={vcc1}  speed2={speed1}  tripdt2={tripdt1} 
XIN5  R Ri  VCC VGND  74HCT_IN_1  vcc2={vcc1}  speed2={speed1}  tripdt2={tripdt1} 
*
ACINV  Ci 0 0 0 0  Cn 0 0  BUF  tripdt={tripdt1}
ARINV  Ri 0 0 0 0  Rn 0 0  BUF  tripdt={tripdt1}
ASINV  Si 0 0 0 0  Sn 0 0  BUF  tripdt={tripdt1}
AKINF  Ki 0 0 0 0  Kn 0 0  BUF  tripdt={tripdt1}
AJINF  Ji 0 0 0 0  Jn 0 0  BUF  tripdt={tripdt1}
* Ji=1, Ki=0    Q=1
* Ji=1, Ki=1    Q=toggle
* Ji=0, Ki=0    Q=no change
* Ji=0, Ki=1    Q=0  
A11   Ji Kn 0   0 0  0 D1 0  AND  tripdt={tripdt1}
A10   Ji Ki QNi 0 0  0 D2 0  AND  tripdt={tripdt1}
A01   Jn Kn Qi  0 0  0 D3 0  AND  tripdt={tripdt1} 
AOR3  D1 D2 D3  0 0  0 Di 0  OR  tripdt={tripdt1}
AFP   Di 0 Cn Sn Rn  QNi Qi 0  DFLOP  tripdt={tripdt1}  td={td1} 
*
XOUT1  Qi  Q   VCC VGND  74HCT_OUT_1X  vcc2={vcc1} speed2={speed1}  tripdt2={tripdt1}
XOUT2  QNi QN  VCC VGND  74HCT_OUT_1X  vcc2={vcc1} speed2={speed1}  tripdt2={tripdt1}
.ends
*
*
*
* (DUAL) RETRIGGERABLE MONOSTABLE MULTIVIBRATOR
* Pulse Width Tw = 0.5 * R * C
* tpd R,A,B->Q     30n
* Tpulse 75n, C=0, Rext=5k
.SUBCKT 74HCT123  A B CLR  CGND RC  Q QN  VCC VGND  vcc1={vcc} speed1={speed} tripdt1={tripdt}
.param egain=1/{vcc1}
.param td5=1e-9*(5)*4.0/({vcc1}-0.5)*{speed1}
.param td2=1e-9*(2)*4.0/({vcc1}-0.5)*{speed1}
*
XINA    A Ai  VCC VGND  74HCT_IN_1  vcc2={vcc1}  speed2={speed1}  tripdt2={tripdt1} 
XINB    B Bi  VCC VGND  74HCT_IN_1  vcc2={vcc1}  speed2={speed1}  tripdt2={tripdt1} 
XINCLR  CLR CLRi  VCC VGND  74HCT_IN_1  vcc2={vcc1}  speed2={speed1}  tripdt2={tripdt1} 
XINRC1  RC RCi  VCC VGND  74HCT_IN_0  vcc2={vcc1}  speed2={speed1}  tripdt2={tripdt1} 
*
* Model of a 74HCT123 derived  from SGS-Thomson data sheet.
* Helmut Sennewald, 13.9.2002
A4 DHIGH 0 N014 0 N004 N006 N005 0 DFLOP   tripdt={tripdt1}  td={td5}
A3 0 N015 N016 N023 0  N014 0 0 OR  tripdt={tripdt1}  td={td5}
A1 Ai 0 0 0 0          0 N015 0  SCHMITT  Vt=0.29 Vh=0.02  tripdt={tripdt1}  td={td5}
A2 Bi 0 0 0 0          N016 0 0  SCHMITT  Vt=0.29 Vh=0.02  tripdt={tripdt1}  td={td5}
A6 0 N008 0 N006 0     N007 0 0  AND  tripdt={tripdt1}  td={td5}
A5 0 N009 0 N007 0     N008 0 0  AND  tripdt={tripdt1}  td={td5}
A14 0 N003 0 N021 0    N004 0 0  AND  tripdt={tripdt1}  td={td2}
A13 0 N003 0 N005 0    0 N030 0  AND  tripdt={tripdt1}  td={td5}
A12 N005 0 0 0 0       N012 0 0  BUF  tripdt={tripdt1}  td={td5}
A21 0 N010 0 N011 0    0 N009 0  OR  tripdt={tripdt1}  td={td5}
A22 0 N005 0 N007 0    N010 0 0  OR  tripdt={tripdt1}  td={td5}
A11 0 N013 0 N012 0    0 N003 0  OR  tripdt={tripdt1}  td={td5}
A7 0 N007 0 N018 0     QNi Qi 0  AND  tripdt={tripdt1}  td={td5}
A20 RCi 0 0 0 0        N011 0 0  SCHMITT  tripdt={tripdt1}  td={td5}  Vt=0.44 Vh=0.2m 
A10 RCi 0 0 0 0        0 N013 0  SCHMITT  tripdt={tripdt1}  td={td5}  Vt=0.1 Vh=0.2m 
A32 0 N006 0 N021 0    N022 0 0  OR  tripdt={tripdt1}  td={td5}
A31 0 N022 0 N023 0    N021 0 0  OR  tripdt={tripdt1}  td={td2}
A33 N021 0 0 0 0       N019 0 0  BUF  tripdt={tripdt1}  td={td5}
A30 CLRi 0 0 0 0       N023 0 0  BUF  tripdt={tripdt1}  td={td5}
A34 0 N007 0 N006 0    N020 0 0  AND  tripdt={tripdt1}  td={td5}
A35 0 N020 0 N018 0    N017 0 0  OR  tripdt={tripdt1}  td={td5}
A36 0 N017 0 N019 0    N018 0 0  OR  tripdt={tripdt1}  td={td5}
M10 RC N001 VGND VGND NMOS1
M30 RC N024 VCC VCC PMOS1
D1 RC VCC DIO1
D2 VGND RC DIO1
R10 N001 N002 100
R30 N024 N029 100
R3 CGND VGND 1
E4 RCi 0 RC VGND {egain}
E7 N029 VCC N018 0 {vcc1}
E8 N002 VGND N030 0 {vcc1}
V1 DHIGH 0 DC 1
.MODEL NMOS1 NMOS ( LEVEL=3  W=500e-6  L=1E-6  VTO=1
+ VMAX=1E6  RS=10  RD=10  CJ=0.002  MJ=0.4 
+THETA=1E-6 ETA=0.01  KAPPA=2.2)
.MODEL PMOS1 PMOS ( LEVEL=3  W=500e-6  L=1E-6  VTO=-1 
+ VMAX=1E6  RS=10  RD=10  CJ=0.002  MJ=0.4 
+THETA=1E-6 ETA=0.01  KAPPA=2.2)
.MODEL DIO1 D (IS=10p RS=10 N=1.75 M=0.4 Cjo=6p TT=20n)
*
XOUT0  Qi  Q   VCC VGND  74HCT_OUT_1X  vcc2={vcc1} speed2={speed1}  tripdt2={tripdt1}
XOUT1  QNi QN  VCC VGND  74HCT_OUT_1X  vcc2={vcc1} speed2={speed1}  tripdt2={tripdt1}
.ends
*
*
*
* (DUAL) RETRIGGERABLE MONOSTABLE MULTIVIBRATOR
* Pulse Width Tw = R * C
* tpd R,A,B->Q     30n
* Tpulse 75n, C=0, Rext=5k
.SUBCKT 74HCT123A  A B CLR  CGND RC  Q QN  VCC VGND  vcc1={vcc} speed1={speed} tripdt1={tripdt}
.param egain=1/{vcc1}
.param td5=1e-9*(5)*4.0/({vcc1}-0.5)*{speed1}
.param td2=1e-9*(2)*4.0/({vcc1}-0.5)*{speed1}
*
XINA    A Ai  VCC VGND  74HCT_IN_1  vcc2={vcc1}  speed2={speed1}  tripdt2={tripdt1} 
XINB    B Bi  VCC VGND  74HCT_IN_1  vcc2={vcc1}  speed2={speed1}  tripdt2={tripdt1} 
XINCLR  CLR CLRi  VCC VGND  74HCT_IN_1  vcc2={vcc1}  speed2={speed1}  tripdt2={tripdt1} 
XINRC1  RC RCi  VCC VGND  74HCT_IN_0  vcc2={vcc1}  speed2={speed1}  tripdt2={tripdt1} 
*
* Model of a 74HCT123A derived  from SGS-Thomson data sheet.
* Helmut Sennewald, 13.9.2002
A4 DHIGH 0 N014 0 N004 N006 N005 0 DFLOP   tripdt={tripdt1}  td={td5}
A3 0 N015 N016 N023 0  N014 0 0 OR  tripdt={tripdt1}  td={td5}
A1 Ai 0 0 0 0          0 N015 0  SCHMITT  Vt=0.29 Vh=0.02  tripdt={tripdt1}  td={td5}
A2 Bi 0 0 0 0          N016 0 0  SCHMITT  Vt=0.29 Vh=0.02  tripdt={tripdt1}  td={td5}
A6 0 N008 0 N006 0     N007 0 0  AND  tripdt={tripdt1}  td={td5}
A5 0 N009 0 N007 0     N008 0 0  AND  tripdt={tripdt1}  td={td5}
A14 0 N003 0 N021 0    N004 0 0  AND  tripdt={tripdt1}  td={td2}
A13 0 N003 0 N005 0    0 N030 0  AND  tripdt={tripdt1}  td={td5}
A12 N005 0 0 0 0       N012 0 0  BUF  tripdt={tripdt1}  td={td5}
A21 0 N010 0 N011 0    0 N009 0  OR  tripdt={tripdt1}  td={td5}
A22 0 N005 0 N007 0    N010 0 0  OR  tripdt={tripdt1}  td={td5}
A11 0 N013 0 N012 0    0 N003 0  OR  tripdt={tripdt1}  td={td5}
A7 0 N007 0 N018 0     QNi Qi 0  AND  tripdt={tripdt1}  td={td5}
A20 RCi 0 0 0 0        N011 0 0  SCHMITT  tripdt={tripdt1}  td={td5}  Vt=0.66 Vh=0.2m 
A10 RCi 0 0 0 0        0 N013 0  SCHMITT  tripdt={tripdt1}  td={td5}  Vt=0.1 Vh=0.2m 
A32 0 N006 0 N021 0    N022 0 0  OR  tripdt={tripdt1}  td={td5}
A31 0 N022 0 N023 0    N021 0 0  OR  tripdt={tripdt1}  td={td2}
A33 N021 0 0 0 0       N019 0 0  BUF  tripdt={tripdt1}  td={td5}
A30 CLRi 0 0 0 0       N023 0 0  BUF  tripdt={tripdt1}  td={td5}
A34 0 N007 0 N006 0    N020 0 0  AND  tripdt={tripdt1}  td={td5}
A35 0 N020 0 N018 0    N017 0 0  OR  tripdt={tripdt1}  td={td5}
A36 0 N017 0 N019 0    N018 0 0  OR  tripdt={tripdt1}  td={td5}
M10 RC N001 VGND VGND NMOS1
M30 RC N024 VCC VCC PMOS1
D1 RC VCC DIO1
D2 VGND RC DIO1
R10 N001 N002 100
R30 N024 N029 100
R3 CGND VGND 1
E4 RCi 0 RC VGND {egain}
E7 N029 VCC N018 0 {vcc1}
E8 N002 VGND N030 0 {vcc1}
V1 DHIGH 0 DC 1
.MODEL NMOS1 NMOS ( LEVEL=3  W=500e-6  L=1E-6  VTO=1
+ VMAX=1E6  RS=10  RD=10  CJ=0.002  MJ=0.4 
+THETA=1E-6 ETA=0.01  KAPPA=2.2)
.MODEL PMOS1 PMOS ( LEVEL=3  W=500e-6  L=1E-6  VTO=-1 
+ VMAX=1E6  RS=10  RD=10  CJ=0.002  MJ=0.4 
+THETA=1E-6 ETA=0.01  KAPPA=2.2)
.MODEL DIO1 D (IS=10p RS=10 N=1.75 M=0.4 Cjo=6p TT=20n)
*
XOUT0  Qi  Q   VCC VGND  74HCT_OUT_1X  vcc2={vcc1} speed2={speed1}  tripdt2={tripdt1}
XOUT1  QNi QN  VCC VGND  74HCT_OUT_1X  vcc2={vcc1} speed2={speed1}  tripdt2={tripdt1}
.ends
*
*
*
* Tristate buffer
* Tpd 30n/11n/9n    15n
* Toe 41n/14n/12n   15n
* Tr 14n/5n/4n       5n
.SUBCKT 74HCT125  A OE Y  VCC VGND  vcc1={vcc} speed1={speed} tripdt1={tripdt}
.param td1=1e-9*(15-3-3)*4.0/({vcc1}-0.5)*{speed1}
.param td2=1e-9*(15+4-3-3)*4.0/({vcc1}-0.5)*{speed1}
*
XIN1  A  Ai   VCC VGND  74HCT_IN_1  vcc2={vcc1}  speed2={speed1}  tripdt2={tripdt1} 
XIN2  OE OEi  VCC VGND  74HCT_IN_1  vcc2={vcc1}  speed2={speed1}  tripdt2={tripdt1} 
*
A1   Ai  0 0 0 0  0  Yi 0  BUF  tripdt={tripdt1}  td={td1}  
AOE  OEi 0 0 0 0  OEn 0 0  BUF  tripdt={tripdt1}  td={td2}
*
XOUT  OEn Yi Y  VCC VGND  74HCT_OUT_TS_2X  vcc2={vcc1} speed2={speed1}  tripdt2={tripdt1}
.ends
*
*
*
* 2-Schmitt-input NAND gate
* tpd 36n/13n/10n    20n
* tr 19n/7n/6n        7n
* VT+ 1.18/2.38/3.14
* VT- 0.63/1.67/2.26
.SUBCKT 74HCT132  A B Y  VCC VGND  vcc1={vcc} speed1={speed} tripdt1={tripdt}
.param td1=1e-9*(20-3-3)*4.0/({vcc1}-0.5)*{speed1}
*
XIN1  A Ai  VCC VGND  74HCT_IN_S_1  vcc2={vcc1}  speed2={speed1}  tripdt2={tripdt1} 
XIN2  B Bi  VCC VGND  74HCT_IN_S_1  vcc2={vcc1}  speed2={speed1}  tripdt2={tripdt1} 
*
A1  Ai Bi 0 0 0  Yi 0 0  AND  tripdt={tripdt1}  td={td1}  
*
XOUT  Yi Y  VCC VGND  74HCT_OUT_1X  vcc2={vcc1} speed2={speed1}  tripdt2={tripdt1}
.ends
*
*
*
* 3 to 8 line decoder; low ouput
* A->Y Tpd 41n/15n/12n    20n   
* E->Y Tpd 47n/17n/14n    19n
* tr 19n/7n/6n             7n
.SUBCKT 74HCT138  A0 A1 A2 E1 E2 E3 Y0 Y1 Y2 Y3 Y4 Y5 Y6 Y7  VCC VGND  vcc1={vcc} speed1={speed} tripdt1={tripdt}
.param td1=1e-9*(20-3-3)*4.0/({vcc1}-0.5)*{speed1}
.param td2=1e-9*(19-15)*4.0/({vcc1}-0.5)*{speed1}
*
XIN1  A0 A0i  VCC VGND  74HCT_IN_1  vcc2={vcc1}  speed2={speed1}  tripdt2={tripdt1} 
XIN2  A1 A1i  VCC VGND  74HCT_IN_1  vcc2={vcc1}  speed2={speed1}  tripdt2={tripdt1} 
XIN3  A2 A2i  VCC VGND  74HCT_IN_1  vcc2={vcc1}  speed2={speed1}  tripdt2={tripdt1} 
XIN4  E1 E1i  VCC VGND  74HCT_IN_1  vcc2={vcc1}  speed2={speed1}  tripdt2={tripdt1} 
XIN5  E2 E2i  VCC VGND  74HCT_IN_1  vcc2={vcc1}  speed2={speed1}  tripdt2={tripdt1} 
XIN6  E3 E3i  VCC VGND  74HCT_IN_1  vcc2={vcc1}  speed2={speed1}  tripdt2={tripdt1} 
*
AE1  E1i 0 0 0 0  E1n 0 0  BUF  tripdt={tripdt1} 
AE2  E2i 0 0 0 0  E2n 0 0  BUF  tripdt={tripdt1} 
AE0  E1n E2n E3i 0 0  0 EN 0  AND  tripdt={tripdt1}  td={td2}
A0N  A0i 0 0 0 0  A0n 0 0  BUF  tripdt={tripdt1} 
A1N  A1i 0 0 0 0  A1n 0 0  BUF  tripdt={tripdt1} 
A2N  A2i 0 0 0 0  A2n 0 0  BUF  tripdt={tripdt1} 
AY0  A0n A1n A2n EN 0  Y0i 0 0  AND  tripdt={tripdt1}  td={td1} 
AY1  A0i A1n A2n EN 0  Y1i 0 0  AND  tripdt={tripdt1}  td={td1} 
AY2  A0n A1i A2n EN 0  Y2i 0 0  AND  tripdt={tripdt1}  td={td1} 
AY3  A0i A1i A2n EN 0  Y3i 0 0  AND  tripdt={tripdt1}  td={td1} 
AY4  A0n A1n A2i EN 0  Y4i 0 0  AND  tripdt={tripdt1}  td={td1}
AY5  A0i A1n A2i EN 0  Y5i 0 0  AND  tripdt={tripdt1}  td={td1} 
AY6  A0n A1i A2i EN 0  Y6i 0 0  AND  tripdt={tripdt1}  td={td1} 
AY7  A0i A1i A2i EN 0  Y7i 0 0  AND  tripdt={tripdt1}  td={td1} 
*
XOUT1  Y0i Y0  VCC VGND  74HCT_OUT_1X  vcc2={vcc1} speed2={speed1}  tripdt2={tripdt1}
XOUT2  Y1i Y1  VCC VGND  74HCT_OUT_1X  vcc2={vcc1} speed2={speed1}  tripdt2={tripdt1}
XOUT3  Y2i Y2  VCC VGND  74HCT_OUT_1X  vcc2={vcc1} speed2={speed1}  tripdt2={tripdt1}
XOUT4  Y3i Y3  VCC VGND  74HCT_OUT_1X  vcc2={vcc1} speed2={speed1}  tripdt2={tripdt1}
XOUT5  Y4i Y4  VCC VGND  74HCT_OUT_1X  vcc2={vcc1} speed2={speed1}  tripdt2={tripdt1}
XOUT6  Y5i Y5  VCC VGND  74HCT_OUT_1X  vcc2={vcc1} speed2={speed1}  tripdt2={tripdt1}
XOUT7  Y6i Y6  VCC VGND  74HCT_OUT_1X  vcc2={vcc1} speed2={speed1}  tripdt2={tripdt1}
XOUT8  Y7i Y7  VCC VGND  74HCT_OUT_1X  vcc2={vcc1} speed2={speed1}  tripdt2={tripdt1}
.ends
*
*
*
* 2 to 4 line decoder
* A->Y Tpd 39n/14n/11n     16n
* E->Y Tpd 33n/12n/10n     16n
* tr 19n/7n/6n
.SUBCKT 74HCT139  A0 A1 EN Y0 Y1 Y2 Y3  VCC VGND  vcc1={vcc} speed1={speed} tripdt1={tripdt}
.param td1=1e-9*(16-3-3)*4.0/({vcc1}-0.5)*{speed1}
.param td2=1e-9*(16-3-3)*4.0/({vcc1}-0.5)*{speed1}
*
XIN1  A0 A0i  VCC VGND  74HCT_IN_1  vcc2={vcc1}  speed2={speed1}  tripdt2={tripdt1} 
XIN2  A1 A1i  VCC VGND  74HCT_IN_1  vcc2={vcc1}  speed2={speed1}  tripdt2={tripdt1} 
XIN3  EN ENi  VCC VGND  74HCT_IN_1  vcc2={vcc1}  speed2={speed1}  tripdt2={tripdt1} 
*
AEN  ENi 0 0 0 0  ENn 0   0  BUF  tripdt={tripdt1}  td={td2}
A0N  A0i 0 0 0 0  A0n A0p 0  BUF  tripdt={tripdt1}  td={td1} 
A1N  A1i 0 0 0 0  A1n A1p 0  BUF  tripdt={tripdt1}  td={td1} 
AY0  A0n A1n ENn 0 0  Y0i 0 0  AND  tripdt={tripdt1}  td={td1} 
AY1  A0p A1n ENn 0 0  Y1i 0 0  AND  tripdt={tripdt1}  td={td1} 
AY2  A0n A1p ENn 0 0  Y2i 0 0  AND  tripdt={tripdt1}  td={td1} 
AY3  A0p A1p ENn 0 0  Y3i 0 0  AND  tripdt={tripdt1}  td={td1} 
*
XOUT1  Y0i Y0  VCC VGND  74HCT_OUT_1X  vcc2={vcc1} speed2={speed1}  tripdt2={tripdt1}
XOUT2  Y1i Y1  VCC VGND  74HCT_OUT_1X  vcc2={vcc1} speed2={speed1}  tripdt2={tripdt1}
XOUT3  Y2i Y2  VCC VGND  74HCT_OUT_1X  vcc2={vcc1} speed2={speed1}  tripdt2={tripdt1}
XOUT4  Y3i Y3  VCC VGND  74HCT_OUT_1X  vcc2={vcc1} speed2={speed1}  tripdt2={tripdt1}
.ends
*
*
*
* 8 to 1 multiplexer
* In->Y Tpd 52n/19n/15n In-YN 58n/21n/17n   22n
* Sn->Y Tpd 61n/22n/18n Sn-YN 61n/22n/18n   25n
* En->Y Tpd 41n/15n/12n En-YN 47n/17n/14n   16n
* tr 19n/7n/6n                               7n
.SUBCKT 74HCT151  EN S0 S1 S2 I0 I1 I2 I3 I4 I5 I6 I7 Y W  VCC VGND  vcc1={vcc} speed1={speed} tripdt1={tripdt}
.param td1=1e-9*(10-3-3)*4.0/({vcc1}-0.5)*{speed1}
.param td2=1e-9*(22-10)*4.0/({vcc1}-0.5)*{speed1}
.param td3=1e-9*(25-10)*4.0/({vcc1}-0.5)*{speed1}
.param td4=1e-9*(16-10)*4.0/({vcc1}-0.5)*{speed1}
.param td5=1e-9*(2)*4.0/({vcc1}-0.5)*{speed1}
*
XIN1   EN ENi  VCC VGND  74HCT_IN_1  vcc2={vcc1}  speed2={speed1}  tripdt2={tripdt1}
XIN2   S0 S0i  VCC VGND  74HCT_IN_1  vcc2={vcc1}  speed2={speed1}  tripdt2={tripdt1} 
XIN3   S1 S1i  VCC VGND  74HCT_IN_1  vcc2={vcc1}  speed2={speed1}  tripdt2={tripdt1} 
XIN4   S2 S2i  VCC VGND  74HCT_IN_1  vcc2={vcc1}  speed2={speed1}  tripdt2={tripdt1} 
XIN5   I0 I0i  VCC VGND  74HCT_IN_1  vcc2={vcc1}  speed2={speed1}  tripdt2={tripdt1} 
XIN6   I1 I1i  VCC VGND  74HCT_IN_1  vcc2={vcc1}  speed2={speed1}  tripdt2={tripdt1} 