*----------------------------------------------------------------------
* SPICE Netlist Generated by TDK Corporation
* Copyright(C) 2015 TDK Corporation.
* All Rights Reserved.
*----------------------------------------------------------------------
* TDK P/N: ACM2012D-900-2P (Common Mode Filter)
* Property: |Zc|=90ohm Typ. at 100MHz
* Size(LxWxT): 2x1.2x1.2mm, 0.079x0.047x0.047inches
* Model Type: Simple Model
* Model Generated on June 29, 2015
*----------------------------------------------------------------------
* Terms and conditions regarding TDK Simulation Models:
* 1)This simulation model is being provided solely for informational
*   purposes. Please refer to the specifications of the products in
*   terms of detailed characteristics of such products.
* 2)In no event shall TDK Corporation of any of its subsidiaries be
*   liable for any loss or damage arising, directly or indirectly,
*   from any information contained in this simulation model, including,
*   but not limited to loss or damages arising from any inaccuracies,
*   omissions or errors in connection with such information.
* 3)Any and all copyrights on this simulation model are owned by
*   TDK Corporation.  Duplication or redistribution of this simulation
*   model without prior written permission from TDK Corporation
*   is prohibited.
* 4)This simulation model is subject to any modification or change
*   without any prior notice.
* 5)Neither TDK Corporation nor any of its subsidiaries shall make any
*   warranty, express or implied, including but not limited to the
*   correctness, implied warranties of merchantability and fitness for
*   a particular purpose with respect to this simulation models.
* 6)The use of this simulation model shall be deemed to have consented
*   to the terms and conditions hereof.
*----------------------------------------------------------------------
* External Node Assignments:
*
*  n1 ---@@@--- n4
*       ===
*  n2 ---@@@--- n3
*
*----------------------------------------------------------------------
* Applicable Conditions:
*   Temperature = 25 degC
*   DC Bias Current = 0 A
*   Small Signal Operation
*----------------------------------------------------------------------
.SUBCKT ACM2012D_900_2P_s n1 n2 n3 n4
C11 11 12 2.00000000E-14
C12 21 22 2.00000000E-14
C13 31 32 2.00000000E-14
C14 41 42 2.00000000E-14
C21 12 42 2.00000000E-14
C22 22 32 2.00000000E-14
C41 12 22 4.50000000E-13
C42 32 42 4.50000000E-13
K11 L21 L22 9.99999999E-01
L11 11 12 3.30000000E-09
L12 21 22 3.30000000E-09
L13 31 32 3.30000000E-09
L14 41 42 3.30000000E-09
L21 12 42 1.30000000E-07
L22 22 32 1.30000000E-07
R11 11 12 1.13000000E+02
R12 21 22 1.13000000E+02
R13 31 32 1.13000000E+02
R14 41 42 1.13000000E+02
R21 12 42 7.00000000E+02
R22 22 32 7.00000000E+02
R31 n1 11 1.00000000E-01
R32 n2 21 1.00000000E-01
R33 n3 31 1.00000000E-01
R34 n4 41 1.00000000E-01
R41 12 22 1.00000000E+09
R42 32 42 1.00000000E+09
R51 n1 n4 1.00000000E+09
R52 n2 n3 1.00000000E+09
.ENDS ACM2012D_900_2P_s
*----------------------------------------------------------------------
*----------------------------------------------------------------------
* SPICE Netlist Generated by TDK Corporation
* Copyright(C) 2015 TDK Corporation.
* All Rights Reserved.
*----------------------------------------------------------------------
* TDK P/N: ACM2012E-181-2P-T00 (Common Mode Filter)
* Property: |Zc|=180ohm Typ. at 100MHz
* Size(LxWxT): 2x1.2x1mm, 0.079x0.047x0.039inches
* Model Type: Simple Model
* Model Generated on June 29, 2015
*----------------------------------------------------------------------
* Terms and conditions regarding TDK Simulation Models:
* 1)This simulation model is being provided solely for informational
*   purposes. Please refer to the specifications of the products in
*   terms of detailed characteristics of such products.
* 2)In no event shall TDK Corporation of any of its subsidiaries be
*   liable for any loss or damage arising, directly or indirectly,
*   from any information contained in this simulation model, including,
*   but not limited to loss or damages arising from any inaccuracies,
*   omissions or errors in connection with such information.
* 3)Any and all copyrights on this simulation model are owned by
*   TDK Corporation.  Duplication or redistribution of this simulation
*   model without prior written permission from TDK Corporation
*   is prohibited.
* 4)This simulation model is subject to any modification or change
*   without any prior notice.
* 5)Neither TDK Corporation nor any of its subsidiaries shall make any
*   warranty, express or implied, including but not limited to the
*   correctness, implied warranties of merchantability and fitness for
*   a particular purpose with respect to this simulation models.
* 6)The use of this simulation model shall be deemed to have consented
*   to the terms and conditions hereof.
*----------------------------------------------------------------------
* External Node Assignments:
*
*  n1 ---@@@--- n4
*       ===
*  n2 ---@@@--- n3
*
*----------------------------------------------------------------------
* Applicable Conditions:
*   Temperature = 25 degC
*   DC Bias Current = 0 A
*   Small Signal Operation
*----------------------------------------------------------------------
.SUBCKT ACM2012E_181_2P_T00_s n1 n2 n3 n4
C11 11 12 1.00000000E-14
C12 21 22 1.00000000E-14
C13 31 32 1.00000000E-14
C14 41 42 1.00000000E-14
C21 12 42 3.27132431E-14
C22 22 32 3.27132431E-14
C41 12 22 2.39117370E-12
C42 32 42 2.39117370E-12
K11 L21 L22 9.99999999E-01
L11 11 12 3.46491679E-09
L12 21 22 3.46491679E-09
L13 31 32 3.46491679E-09
L14 41 42 3.46491679E-09
L21 12 42 3.41942077E-07
L22 22 32 3.41942077E-07
R11 11 12 2.39535804E+01
R12 21 22 2.39535804E+01
R13 31 32 2.39535804E+01
R14 41 42 2.39535804E+01
R21 12 42 3.69759604E+03
R22 22 32 3.69759604E+03
R31 n1 11 2.10000000E-01
R32 n2 21 2.10000000E-01
R33 n3 31 2.10000000E-01
R34 n4 41 2.10000000E-01
R41 12 22 1.00000000E+09
R42 32 42 1.00000000E+09
R51 n1 n4 1.00000000E+09
R52 n2 n3 1.00000000E+09
.ENDS ACM2012E_181_2P_T00_s
*----------------------------------------------------------------------
*----------------------------------------------------------------------
* SPICE Netlist Generated by TDK Corporation
* Copyright(C) 2015 TDK Corporation.
* All Rights Reserved.
*----------------------------------------------------------------------
* TDK P/N: ACM2012E-670-2P-T01 (Common Mode Filter)
* Property: |Zc|=67ohm Typ. at 100MHz
* Size(LxWxT): 2x1.2x1mm, 0.079x0.047x0.039inches
* Model Type: Simple Model
* Model Generated on June 29, 2015
*----------------------------------------------------------------------
* Terms and conditions regarding TDK Simulation Models:
* 1)This simulation model is being provided solely for informational
*   purposes. Please refer to the specifications of the products in
*   terms of detailed characteristics of such products.
* 2)In no event shall TDK Corporation of any of its subsidiaries be
*   liable for any loss or damage arising, directly or indirectly,
*   from any information contained in this simulation model, including,
*   but not limited to loss or damages arising from any inaccuracies,
*   omissions or errors in connection with such information.
* 3)Any and all copyrights on this simulation model are owned by
*   TDK Corporation.  Duplication or redistribution of this simulation
*   model without prior written permission from TDK Corporation
*   is prohibited.
* 4)This simulation model is subject to any modification or change
*   without any prior notice.
* 5)Neither TDK Corporation nor any of its subsidiaries shall make any
*   warranty, express or implied, including but not limited to the
*   correctness, implied warranties of merchantability and fitness for
*   a particular purpose with respect to this simulation models.
* 6)The use of this simulation model shall be deemed to have consented
*   to the terms and conditions hereof.
*----------------------------------------------------------------------
* External Node Assignments:
*
*  n1 ---@@@--- n4
*       ===
*  n2 ---@@@--- n3
*
*----------------------------------------------------------------------
* Applicable Conditions:
*   Temperature = 25 degC
*   DC Bias Current = 0 A
*   Small Signal Operation
*----------------------------------------------------------------------
.SUBCKT ACM2012E_670_2P_T01_s n1 n2 n3 n4
C11 11 12 1.00000000E-14
C12 21 22 1.00000000E-14
C13 31 32 1.00000000E-14
C14 41 42 1.00000000E-14
C21 12 42 2.79226108E-14
C22 22 32 2.79226108E-14
C41 12 22 3.77251086E-13
C42 32 42 3.77251086E-13
K11 L21 L22 9.99999999E-01
L11 11 12 2.43819476E-09
L12 21 22 2.43819476E-09
L13 31 32 2.43819476E-09
L14 41 42 2.43819476E-09
L21 12 42 1.06007432E-07
L22 22 32 1.06007432E-07
R11 11 12 6.17614765E+01
R12 21 22 6.17614765E+01
R13 31 32 6.17614765E+01
R14 41 42 6.17614765E+01
R21 12 42 1.13733734E+03
R22 22 32 1.13733734E+03
R31 n1 11 1.57500000E-01
R32 n2 21 1.57500000E-01
R33 n3 31 1.57500000E-01
R34 n4 41 1.57500000E-01
R41 12 22 1.00000000E+09
R42 32 42 1.00000000E+09
R51 n1 n4 1.00000000E+09
R52 n2 n3 1.00000000E+09
.ENDS ACM2012E_670_2P_T01_s
*----------------------------------------------------------------------
*----------------------------------------------------------------------
* SPICE Netlist Generated by TDK Corporation
* Copyright(C) 2015 TDK Corporation.
* All Rights Reserved.
*----------------------------------------------------------------------
* TDK P/N: ACM2012E-900-2P-T00 (Common Mode Filter)
* Property: |Zc|=90ohm Typ. at 100MHz
* Size(LxWxT): 2x1.2x1mm, 0.079x0.047x0.039inches
* Model Type: Simple Model
* Model Generated on June 29, 2015
*----------------------------------------------------------------------
* Terms and conditions regarding TDK Simulation Models:
* 1)This simulation model is being provided solely for informational
*   purposes. Please refer to the specifications of the products in
*   terms of detailed characteristics of such products.
* 2)In no event shall TDK Corporation of any of its subsidiaries be
*   liable for any loss or damage arising, directly or indirectly,
*   from any information contained in this simulation model, including,
*   but not limited to loss or damages arising from any inaccuracies,
*   omissions or errors in connection with such information.
* 3)Any and all copyrights on this simulation model are owned by
*   TDK Corporation.  Duplication or redistribution of this simulation
*   model without prior written permission from TDK Corporation
*   is prohibited.
* 4)This simulation model is subject to any modification or change
*   without any prior notice.
* 5)Neither TDK Corporation nor any of its subsidiaries shall make any
*   warranty, express or implied, including but not limited to the
*   correctness, implied warranties of merchantability and fitness for
*   a particular purpose with respect to this simulation models.
* 6)The use of this simulation model shall be deemed to have consented
*   to the terms and conditions hereof.
*----------------------------------------------------------------------
* External Node Assignments:
*
*  n1 ---@@@--- n4
*       ===
*  n2 ---@@@--- n3
*
*----------------------------------------------------------------------
* Applicable Conditions:
*   Temperature = 25 degC
*   DC Bias Current = 0 A
*   Small Signal Operation
*----------------------------------------------------------------------
.SUBCKT ACM2012E_900_2P_T00_s n1 n2 n3 n4
C11 11 12 1.00000000E-14
C12 21 22 1.00000000E-14
C13 31 32 1.00000000E-14
C14 41 42 1.00000000E-14
C21 12 42 2.91908116E-14
C22 22 32 2.91908116E-14
C41 12 22 1.18758732E-12
C42 32 42 1.18758732E-12
K11 L21 L22 9.99999999E-01
L11 11 12 3.01876778E-09
L12 21 22 3.01876778E-09
L13 31 32 3.01876778E-09
L14 41 42 3.01876778E-09
L21 12 42 1.60076039E-07
L22 22 32 1.60076039E-07
R11 11 12 6.93808631E+01
R12 21 22 6.93808631E+01
R13 31 32 6.93808631E+01
R14 41 42 6.93808631E+01
R21 12 42 1.54859870E+03
R22 22 32 1.54859870E+03
R31 n1 11 9.42500000E-02
R32 n2 21 9.42500000E-02
R33 n3 31 9.42500000E-02
R34 n4 41 9.42500000E-02
R41 12 22 1.00000000E+09
R42 32 42 1.00000000E+09
R51 n1 n4 1.00000000E+09
R52 n2 n3 1.00000000E+09
.ENDS ACM2012E_900_2P_T00_s
*----------------------------------------------------------------------
*----------------------------------------------------------------------
* SPICE Netlist Generated by TDK Corporation
* Copyright(C) 2015 TDK Corporation.
* All Rights Reserved.
*----------------------------------------------------------------------
* TDK P/N: ACM2012H-900-2P (Common Mode Filter)
* Property: |Zc|=90ohm Typ. at 100MHz
* Size(LxWxT): 2x1.2x1.2mm, 0.079x0.047x0.047inches
* Model Type: Simple Model
* Model Generated on June 29, 2015
*----------------------------------------------------------------------
* Terms and conditions regarding TDK Simulation Models:
* 1)This simulation model is being provided solely for informational
*   purposes. Please refer to the specifications of the products in
*   terms of detailed characteristics of such products.
* 2)In no event shall TDK Corporation of any of its subsidiaries be
*   liable for any loss or damage arising, directly or indirectly,
*   from any information contained in this simulation model, including,
*   but not limited to loss or damages arising from any inaccuracies,
*   omissions or errors in connection with such information.
* 3)Any and all copyrights on this simulation model are owned by
*   TDK Corporation.  Duplication or redistribution of this simulation
*   model without prior written permission from TDK Corporation
*   is prohibited.
* 4)This simulation model is subject to any modification or change
*   without any prior notice.
* 5)Neither TDK Corporation nor any of its subsidiaries shall make any
*   warranty, express or implied, including but not limited to the
*   correctness, implied warranties of merchantability and fitness for
*   a particular purpose with respect to this simulation models.
* 6)The use of this simulation model shall be deemed to have consented
*   to the terms and conditions hereof.
*----------------------------------------------------------------------
* External Node Assignments:
*
*  n1 ---@@@--- n4
*       ===
*  n2 ---@@@--- n3
*
*----------------------------------------------------------------------
* Applicable Conditions:
*   Temperature = 25 degC
*   DC Bias Current = 0 A
*   Small Signal Operation
*----------------------------------------------------------------------
.SUBCKT ACM2012H_900_2P_s n1 n2 n3 n4
C11 11 12 2.00000000E-14
C12 21 22 2.00000000E-14
C13 31 32 2.00000000E-14
C14 41 42 2.00000000E-14
C21 12 42 2.00000000E-14
C22 22 32 2.00000000E-14
C41 12 22 4.50000000E-13
C42 32 42 4.50000000E-13
K11 L21 L22 9.99999999E-01
L11 11 12 2.20000000E-09
L12 21 22 2.20000000E-09
L13 31 32 2.20000000E-09
L14 41 42 2.20000000E-09
L21 12 42 1.30000000E-07
L22 22 32 1.30000000E-07
R11 11 12 1.13000000E+02
R12 21 22 1.13000000E+02
R13 31 32 1.13000000E+02
R14 41 42 1.13000000E+02
R21 12 42 7.00000000E+02
R22 22 32 7.00000000E+02
R31 n1 11 1.00000000E-01
R32 n2 21 1.00000000E-01
R33 n3 31 1.00000000E-01
R34 n4 41 1.00000000E-01
R41 12 22 1.00000000E+09
R42 32 42 1.00000000E+09
R51 n1 n4 1.00000000E+09
R52 n2 n3 1.00000000E+09
.ENDS ACM2012H_900_2P_s
*----------------------------------------------------------------------
*----------------------------------------------------------------------
* SPICE Netlist Generated by TDK Corporation
* Copyright(C) 2015 TDK Corporation.
* All Rights Reserved.
*----------------------------------------------------------------------
* TDK P/N: ACM2012-121-2P (Common Mode Filter)
* Property: |Zc|=120ohm Typ. at 100MHz
* Size(LxWxT): 2x1.2x1.3mm, 0.079x0.047x0.051inches
* Model Type: Simple Model
* Model Generated on June 29, 2015
*----------------------------------------------------------------------
* Terms and conditions regarding TDK Simulation Models:
* 1)This simulation model is being provided solely for informational
*   purposes. Please refer to the specifications of the products in
*   terms of detailed characteristics of such products.
* 2)In no event shall TDK Corporation of any of its subsidiaries be
*   liable for any loss or damage arising, directly or indirectly,
*   from any information contained in this simulation model, including,
*   but not limited to loss or damages arising from any inaccuracies,
*   omissions or errors in connection with such information.
* 3)Any and all copyrights on this simulation model are owned by
*   TDK Corporation.  Duplication or redistribution of this simulation
*   model without prior written permission from TDK Corporation
*   is prohibited.
* 4)This simulation model is subject to any modification or change
*   without any prior notice.
* 5)Neither TDK Corporation nor any of its subsidiaries shall make any
*   warranty, express or implied, including but not limited to the
*   correctness, implied warranties of merchantability and fitness for
*   a particular purpose with respect to this simulation models.
* 6)The use of this simulation model shall be deemed to have consented
*   to the terms and conditions hereof.
*----------------------------------------------------------------------
* External Node Assignments:
*
*  n1 ---@@@--- n4
*       ===
*  n2 ---@@@--- n3
*
*----------------------------------------------------------------------
* Applicable Conditions:
*   Temperature = 25 degC
*   DC Bias Current = 0 A
*   Small Signal Operation
*----------------------------------------------------------------------
.SUBCKT ACM2012_121_2P_s n1 n2 n3 n4
C11 11 12 9.30000000E-13
C12 21 22 9.30000000E-13
C13 31 32 9.30000000E-13
C14 41 42 9.30000000E-13
C21 12 42 2.00000000E-13
C22 22 32 2.00000000E-13
C41 12 22 1.00000000E-12
C42 32 42 1.00000000E-12
K11 L21 L22 9.99999999E-01
L11 11 12 3.20000000E-09
L12 21 22 3.20000000E-09
L13 31 32 3.20000000E-09
L14 41 42 3.20000000E-09
L21 12 42 2.60000000E-07
L22 22 32 2.60000000E-07
R11 11 12 1.50000000E+01
R12 21 22 1.50000000E+01
R13 31 32 1.50000000E+01
R14 41 42 1.50000000E+01
R21 12 42 1.20000000E+03
R22 22 32 1.20000000E+03
R31 n1 11 7.50000000E-02
R32 n2 21 7.50000000E-02
R33 n3 31 7.50000000E-02
R34 n4 41 7.50000000E-02
R41 12 22 1.00000000E+09
R42 32 42 1.00000000E+09
R51 n1 n4 1.00000000E+09
R52 n2 n3 1.00000000E+09
.ENDS ACM2012_121_2P_s
*----------------------------------------------------------------------
*----------------------------------------------------------------------
* SPICE Netlist Generated by TDK Corporation
* Copyright(C) 2015 TDK Corporation.
* All Rights Reserved.
*----------------------------------------------------------------------
* TDK P/N: ACM2012-201-2P (Common Mode Filter)
* Property: |Zc|=200ohm Typ. at 100MHz
* Size(LxWxT): 2x1.2x1.3mm, 0.079x0.047x0.051inches
* Model Type: Simple Model
* Model Generated on June 29, 2015
*----------------------------------------------------------------------
* Terms and conditions regarding TDK Simulation Models:
* 1)This simulation model is being provided solely for informational
*   purposes. Please refer to the specifications of the products in
*   terms of detailed characteristics of such products.
* 2)In no event shall TDK Corporation of any of its subsidiaries be
*   liable for any loss or damage arising, directly or indirectly,
*   from any information contained in this simulation model, including,
*   but not limited to loss or damages arising from any inaccuracies,
*   omissions or errors in connection with such information.
* 3)Any and all copyrights on this simulation model are owned by
*   TDK Corporation.  Duplication or redistribution of this simulation
*   model without prior written permission from TDK Corporation
*   is prohibited.
* 4)This simulation model is subject to any modification or change
*   without any prior notice.
* 5)Neither TDK Corporation nor any of its subsidiaries shall make any
*   warranty, express or implied, including but not limited to the
*   correctness, implied warranties of merchantability and fitness for
*   a particular purpose with respect to this simulation models.
* 6)The use of this simulation model shall be deemed to have consented
*   to the terms and conditions hereof.
*----------------------------------------------------------------------
* External Node Assignments:
*
*  n1 ---@@@--- n4
*       ===
*  n2 ---@@@--- n3
*
*----------------------------------------------------------------------
* Applicable Conditions:
*   Temperature = 25 degC
*   DC Bias Current = 0 A
*   Small Signal Operation
*----------------------------------------------------------------------
.SUBCKT ACM2012_201_2P_s n1 n2 n3 n4
C11 11 12 1.02000000E-12
C12 21 22 1.02000000E-12
C13 31 32 1.02000000E-12
C14 41 42 1.02000000E-12
C21 12 42 3.00000000E-14
C22 22 32 3.00000000E-14
C41 12 22 1.07000000E-12
C42 32 42 1.07000000E-12
K11 L21 L22 9.99999999E-01
L11 11 12 3.30000000E-09
L12 21 22 3.30000000E-09
L13 31 32 3.30000000E-09
L14 41 42 3.30000000E-09
L21 12 42 4.45000000E-07
L22 22 32 4.45000000E-07
R11 11 12 1.60000000E+01
R12 21 22 1.60000000E+01
R13 31 32 1.60000000E+01
R14 41 42 1.60000000E+01
R21 12 42 1.60000000E+03
R22 22 32 1.60000000E+03
R31 n1 11 8.50000000E-02
R32 n2 21 8.50000000E-02
R33 n3 31 8.50000000E-02
R34 n4 41 8.50000000E-02
R41 12 22 1.00000000E+09
R42 32 42 1.00000000E+09
R51 n1 n4 1.00000000E+09
R52 n2 n3 1.00000000E+09
.ENDS ACM2012_201_2P_s
*----------------------------------------------------------------------
*----------------------------------------------------------------------
* SPICE Netlist Generated by TDK Corporation
* Copyright(C) 2015 TDK Corporation.
* All Rights Reserved.
*----------------------------------------------------------------------
* TDK P/N: ACM2012-361-2P (Common Mode Filter)
* Property: |Zc|=360ohm Typ. at 100MHz
* Size(LxWxT): 2x1.2x1.3mm, 0.079x0.047x0.051inches
* Model Type: Simple Model
* Model Generated on June 29, 2015
*----------------------------------------------------------------------
* Terms and conditions regarding TDK Simulation Models:
* 1)This simulation model is being provided solely for informational
*   purposes. Please refer to the specifications of the products in
*   terms of detailed characteristics of such products.
* 2)In no event shall TDK Corporation of any of its subsidiaries be
*   liable for any loss or damage arising, directly or indirectly,
*   from any information contained in this simulation model, including,
*   but not limited to loss or damages arising from any inaccuracies,
*   omissions or errors in connection with such information.
* 3)Any and all copyrights on this simulation model are owned by
*   TDK Corporation.  Duplication or redistribution of this simulation
*   model without prior written permission from TDK Corporation
*   is prohibited.
* 4)This simulation model is subject to any modification or change
*   without any prior notice.
* 5)Neither TDK Corporation nor any of its subsidiaries shall make any
*   warranty, express or implied, including but not limited to the
*   correctness, implied warranties of merchantability and fitness for
*   a particular purpose with respect to this simulation models.
* 6)The use of this simulation model shall be deemed to have consented
*   to the terms and conditions hereof.
*----------------------------------------------------------------------
* External Node Assignments:
*
*  n1 ---@@@--- n4
*       ===
*  n2 ---@@@--- n3
*
*----------------------------------------------------------------------
* Applicable Conditions:
*   Temperature = 25 degC
*   DC Bias Current = 0 A
*   Small Signal Operation
*----------------------------------------------------------------------
.SUBCKT ACM2012_361_2P_s n1 n2 n3 n4
C11 11 12 1.13000000E-12
C12 21 22 1.13000000E-12
C13 31 32 1.13000000E-12
C14 41 42 1.13000000E-12
C21 12 42 3.00000000E-14
C22 22 32 3.00000000E-14
C41 12 22 2.01000000E-12
C42 32 42 2.01000000E-12
K11 L21 L22 9.99999999E-01
L11 11 12 3.40000000E-09
L12 21 22 3.40000000E-09
L13 31 32 3.40000000E-09
L14 41 42 3.40000000E-09
L21 12 42 8.35000000E-07
L22 22 32 8.35000000E-07
R11 11 12 1.70000000E+01
R12 21 22 1.70000000E+01
R13 31 32 1.70000000E+01
R14 41 42 1.70000000E+01
R21 12 42 2.73000000E+03
R22 22 32 2.73000000E+03
R31 n1 11 9.50000000E-02
R32 n2 21 9.50000000E-02
R33 n3 31 9.50000000E-02
R34 n4 41 9.50000000E-02
R41 12 22 1.00000000E+09
R42 32 42 1.00000000E+09
R51 n1 n4 1.00000000E+09
R52 n2 n3 1.00000000E+09
.ENDS ACM2012_361_2P_s
*----------------------------------------------------------------------
*----------------------------------------------------------------------
* SPICE Netlist Generated by TDK Corporation
* Copyright(C) 2015 TDK Corporation.
* All Rights Reserved.
*----------------------------------------------------------------------
* TDK P/N: ACM2012-900-2P (Common Mode Filter)
* Property: |Zc|=90ohm Typ. at 100MHz
* Size(LxWxT): 2x1.2x1.3mm, 0.079x0.047x0.051inches
* Model Type: Simple Model
* Model Generated on June 29, 2015
*----------------------------------------------------------------------
* Terms and conditions regarding TDK Simulation Models:
* 1)This simulation model is being provided solely for informational
*   purposes. Please refer to the specifications of the products in
*   terms of detailed characteristics of such products.
* 2)In no event shall TDK Corporation of any of its subsidiaries be
*   liable for any loss or damage arising, directly or indirectly,
*   from any information contained in this simulation model, including,
*   but not limited to loss or damages arising from any inaccuracies,
*   omissions or errors in connection with such information.
* 3)Any and all copyrights on this simulation model are owned by
*   TDK Corporation.  Duplication or redistribution of this simulation
*   model without prior written permission from TDK Corporation
*   is prohibited.
* 4)This simulation model is subject to any modification or change
*   without any prior notice.
* 5)Neither TDK Corporation nor any of its subsidiaries shall make any
*   warranty, express or implied, including but not limited to the
*   correctness, implied warranties of merchantability and fitness for
*   a particular purpose with respect to this simulation models.
* 6)The use of this simulation model shall be deemed to have consented
*   to the terms and conditions hereof.
*----------------------------------------------------------------------
* External Node Assignments:
*
*  n1 ---@@@--- n4
*       ===
*  n2 ---@@@--- n3
*
*----------------------------------------------------------------------
* Applicable Conditions:
*   Temperature = 25 degC
*   DC Bias Current = 0 A
*   Small Signal Operation
*----------------------------------------------------------------------
.SUBCKT ACM2012_900_2P_s n1 n2 n3 n4
C11 11 12 8.40000000E-13
C12 21 22 8.40000000E-13
C13 31 32 8.40000000E-13
C14 41 42 8.40000000E-13
C21 12 42 2.00000000E-14
C22 22 32 2.00000000E-14
C41 12 22 9.50000000E-13
C42 32 42 9.50000000E-13
K11 L21 L22 9.99999999E-01
L11 11 12 3.10000000E-09
L12 21 22 3.10000000E-09
L13 31 32 3.10000000E-09
L14 41 42 3.10000000E-09
L21 12 42 2.00000000E-07
L22 22 32 2.00000000E-07
R11 11 12 1.40000000E+01
R12 21 22 1.40000000E+01
R13 31 32 1.40000000E+01
R14 41 42 1.40000000E+01
R21 12 42 8.80000000E+02
R22 22 32 8.80000000E+02
R31 n1 11 6.50000000E-02
R32 n2 21 6.50000000E-02
R33 n3 31 6.50000000E-02
R34 n4 41 6.50000000E-02
R41 12 22 1.00000000E+09
R42 32 42 1.00000000E+09
R51 n1 n4 1.00000000E+09
R52 n2 n3 1.00000000E+09
.ENDS ACM2012_900_2P_s
*----------------------------------------------------------------------
