*N-CH
.SUBCKT DMG1016VN 10 20 30
M1 1 2 3 3 NMOS L=0.6U W=57.5m
RD 10 1 240m
RS 30 3 60m
RG 20 2 93
CGS 2 3 57p
EGD 12 0 2 1 1
VFB 14 0 0
FFB 2 1 VFB 1
CGD 13 14 27p
R1 13 0 1.00
D1 12 13 DLIM
DDG 15 14 DCGD
R2 12 15 1.00
D2 15 0 DLIM
DSD 3 10 DSUB
*********************************************
.MODEL NMOS NMOS LEVEL=3 U0=500 VMAX=80k
+ ETA=0.1m VTO=0.93 TOX=16.8n NSUB=1e17
*********************************************
.MODEL DCGD D CJO=27p VJ=80m M=0.320
*********************************************
.MODEL DSUB D IS=36.1n N=1.50 RS=21.8m BV=20
+ CJO=14p VJ=0.800 M=0.420
*********************************************
.MODEL DLIM D IS=100U
*********************************************
.ENDS DMG1016VN