*
* 2N7000 ELECTRICAL MODEL (SOT-23 Single N-Ch DMOS)
* -----------------------
.SUBCKT  2N7000/FAI 20  10  30
Rg     10    1    1
M1      2    1    3    3    DMOS    L=1u   W=1u
.MODEL DMOS NMOS (VTO={2.1*{-0.0016*TEMP+1.04}}  KP=0.35  THETA=0.086   
+ VMAX=2.2E5  LEVEL=3)        
Cgs     1    3    60p
Rd     20    4    0.3 TC=0.0075
Dds     3    4    DDS
.MODEL     DDS    D(BV={60*{0.00072*TEMP+0.982}}   M=0.36  CJO=23p   VJ=0.8)
Dbody   3   20    DBODY
.MODEL   DBODY    D(IS=1.4E-13   N=1   RS=40m   TT=100n)
Ra      4    2    0.4 TC=0.0075
Rs      3    5    10m
Ls      5    30   .5n
M2      1    8    6    6   INTER
E2      8    6    4    1   2
.MODEL   INTER    NMOS(VTO=0  KP=10   LEVEL=1)
Cgdmax  7    4    85p
Rcgd    7    4    10meg
Dgd     6    4    DGD
Rdgd    4    6    10meg
.MODEL     DGD    D(M=0.53   CJO=85p   VJ=0.12)
M3      7    9    1    1   INTER
E3      9    1    4    1   -2
.ENDS 

*
* 2N7002 ELECTRICAL MODEL (SOT-23 Single N-Ch DMOS)
* -----------------------
.SUBCKT  2N7002/FAI  20  10  30
Rg     10    1    1
M1      2    1    3    3    DMOS    L=1u   W=1u
.MODEL DMOS NMOS (VTO={2.1*{-0.0016*TEMP+1.04}}  KP=0.35  THETA=0.086   
+ VMAX=2.2E5  LEVEL=3)        
Cgs     1    3    60p
Rd     20    4    0.3 TC=0.0075
Dds     3    4    DDS
.MODEL     DDS    D(BV={60*{0.00072*TEMP+0.982}}   M=0.36  CJO=23p   VJ=0.8)
Dbody   3   20    DBODY
.MODEL   DBODY    D(IS=1.4E-13   N=1   RS=40m   TT=100n)
Ra      4    2    0.4 TC=0.0075
Rs      3    5    10m
Ls      5    30   .5n
M2      1    8    6    6   INTER
E2      8    6    4    1   2
.MODEL   INTER    NMOS(VTO=0  KP=10   LEVEL=1)
Cgdmax  7    4    85p
Rcgd    7    4    10meg
Dgd     6    4    DGD
Rdgd    4    6    10meg
.MODEL     DGD    D(M=0.53   CJO=85p   VJ=0.12)
M3      7    9    1    1   INTER
E3      9    1    4    1   -2
.ENDS 

*
 BSS123 ELECTRICAL MODEL (SOT-23 Single N-Ch DMOS)
*-----------------------
.SUBCKT  BSS123/FAI  20  10  30
Rg     10    1    1
M1      2    1    3    3    DMOS    L=1u   W=1u
.MODEL DMOS NMOS (VTO={1.3*{-0.00184*TEMP+1.046}}  KP={-0.0012*TEMP+0.6} 
+ THETA=0.086 VMAX=2.2E5  LEVEL=3)        
Cgs     1    3    50p
Rd     20    4    1.3 TC=0.00864
Dds     3    4    DDS
.MODEL     DDS    D(BV={100*{0.0008*TEMP+0.98}}   M=0.36  CJO=23p   VJ=0.8)
Dbody   3   20    DBODY
.MODEL   DBODY    D(IS=1.4E-13   N=1   RS=40m   TT=100n)
Ra      4    2    1.3 TC=0.00864
Rs      3    5    10m
Ls      5    30   .5n
M2      1    8    6    6   INTER
E2      8    6    4    1   2
.MODEL   INTER    NMOS(VTO=0  KP=10   LEVEL=1)
Cgdmax  7    4    70p
Rcgd    7    4    10meg
Dgd     6    4    DGD
Rdgd    4    6    10meg
.MODEL     DGD    D(M=0.3   CJO=20p   VJ=0.4)
M3      7    9    1    1   INTER
E3      9    1    4    1   -2
.ENDS 

*BSS138 ELECTRICAL MODEL (SOT-23 Single N-Ch DMOS)
*-----------------------
.SUBCKT  BSS138/FAI  20  10  30
Rg     10    1    1
M1      2    1    3    3    DMOS    L=1u   W=1u
.MODEL DMOS NMOS (VTO={1.3*{-0.002*TEMP+1.05}}  KP={-0.0014*TEMP+0.685} 
+ THETA=0.086  VMAX=2.2E5  LEVEL=3)        
Cgs     1    3    40p
Rd     20    4    0.2 TC=0.0065
Dds     3    4    DDS
.MODEL     DDS    D(BV={50*{0.00084*TEMP+0.979}}   M=0.36  CJO=23p   VJ=0.8)
Dbody   3   20    DBODY
.MODEL   DBODY    D(IS=1.4E-13   N=1   RS=40m   TT=100n)
Ra      4    2    0.3 TC=0.0065
Rs      3    5    10m
Ls      5    30   .5n
M2      1    8    6    6   INTER
E2      8    6    4    1   2
.MODEL   INTER    NMOS(VTO=0  KP=10   LEVEL=1)
Cgdmax  7    4    68p
Rcgd    7    4    10meg
Dgd     6    4    DGD
Rdgd    4    6    10meg
.MODEL     DGD    D(M=0.3   CJO=68p   VJ=0.4)
M3      7    9    1    1   INTER
E3      9    1    4    1   -2
.ENDS 
*$
*=======================================================================
* FDS6680 PRELIMINARY ELECTRICAL MODEL (SO-8 Single N-Ch DMOS)
* ------------------------------------------------------------
.SUBCKT  FDS6680/FAI  20  10  30
Rg     10    1    1
M1      2    1    3    3    DMOS    L=1u   W=1u
.MODEL DMOS NMOS (VTO={2.5*{-0.00384*TEMP+1.096}}  KP={-0.05*TEMP+43}
+  THETA=0.096 VMAX=4E5  LEVEL=3)        
Cgs     1    3    1700p
Rd     20    4    1m TC=0.00376
Dds     3    4    DDS
.MODEL     DDS    D(BV={30*{0.00088*TEMP+0.978}}   M=0.3  CJO=800p   VJ=0.8)
Dbody   3   20    DBODY
.MODEL   DBODY    D(IS=1.4E-13   N=1   RS=40m   TT=100n)
Ra      4    2    2m TC=0.00376
Rs      3    5    0.5m
Ls      5    30   0.5n
M2      1    8    6    6   INTER
E2      8    6    4    1   2
.MODEL   INTER    NMOS(VTO=0  KP=10   LEVEL=1)
Cgdmax  7    4    1300p
Rcgd    7    4    10meg
Dgd     6    4    DGD
Rdgd    4    6    10meg
.MODEL     DGD    D(M=0.5   CJO=1300p   VJ=0.15)
M3      7    9    1    1   INTER
E3      9    1    4    1   -2
.ENDS 

*Fairchild Discretes Power & Signal Technolgies June 97 Rev.A
*=======================================================================
* FDV301N ELECTRICAL MODEL (SOT-23 Single N-Ch DMOS)
* -----------------------
.SUBCKT  FDV301N/FAI  20  10  30
Rg     10    1    1
M1      2    1    3    3    DMOS    L=1u   W=1u
.MODEL DMOS NMOS (VTO={0.9*(-0.00232*TEMP+1.058)}  KP={-0.0005*TEMP+0.32}  THETA=0.096
+ VMAX=3.8E5  LEVEL=3)
Cgs     1    3    90p
Rd     20    4    .7 TC=0.006
Dds     3    4    DDS
.MODEL     DDS    D(BV={25*(0.001*TEMP+0.975)}   M=0.36  CJO=23p   VJ=0.8)
Dbody   3   20    DBODY
.MODEL   DBODY    D(IS=1.4E-13   N=1   RS=40m   TT=100n)
Ra      4    2    .7 TC=0.006
Rs      3    5    10m
Ls      5    30   .7n
M2      1    8    6    6   INTER
E2      8    6    4    1   2
.MODEL   INTER    NMOS(VTO=0  KP=10   LEVEL=1)
Cgdmax  7    4    25p
Rcgd    7    4    10meg
Dgd     6    4    DGD
Rdgd    4    6    10meg
.MODEL     DGD    D(M=0.53   CJO=25p   VJ=0.12)
M3      7    9    1    1   INTER
E3      9    1    4    1   -2
.ENDS 
*$

===
*FDP7030L ELECTRICAL MODEL
* ------------------------
.SUBCKT  FDP7030L/FAI 20  10  30
Rg     10    1    3
M1      2    1    3    3    DMOS    L=1u   W=1u
.MODEL DMOS NMOS (VTO=2  KP=65	THETA=0.086  VMAX=1.4E5  LEVEL=3)
Cgs     1    3    1800p
Rd     20    4    1.5m TC=0.0044
Dds     3    4    DDS
.MODEL     DDS    D(BV={30*{0.00144*TEMP+0.964}}   M=0.377  CJO=1083p   VJ=1.22)
Dbody   3   20    DBODY
.MODEL   DBODY    D(IS=1.4E-13   N=1   RS=37.9m   TT=55n)
Ra      4    2    1.5m TC=0.0044
Rs      3    5    0.2m
Ls      5    30   5n
M2      1    8    6    6   INTER
E2      8    6    4    1   2
.MODEL   INTER    NMOS(VTO=0  KP=10   LEVEL=1)
Cgdmax  7    4    4000p
Rcgd    7    4    10meg
Dgd     6    4    DGD
Rdgd    4    6    10meg
.MODEL     DGD    D(M=0.5   CJO=4000p   VJ=0.193)
M3      7    9    1    1   INTER
E3      9    1    4    1   -2
.ENDS 
*$

*=======================================================================
* FDC6322C ELECTRICAL MODEL (PRELIMINARY) (SuperSOT-6 Complementary N-Ch DMOS)
* --------------------------------------------------------------
.SUBCKT  FDC6322CN/FAI  20  10  30
Rg     10    1    1
M1      2    1    3    3    DMOS    L=1u   W=1u
.MODEL DMOS NMOS (VTO={0.9*(-0.00232*TEMP+1.058)}  KP={-0.0005*TEMP+0.32}  THETA=0.096
+ VMAX=VMAX=3.8E5  LEVEL=3)
Cgs     1    3    90p
Rd     20    4    .7 TC=0.006
Dds     3    4    DDS
.MODEL     DDS    D(BV={25*(0.001*TEMP+0.975)}   M=0.36  CJO=23p   VJ=0.8)
Dbody   3   20    DBODY
.MODEL   DBODY    D(IS=1.4E-13   N=1   RS=40m   TT=100n)
Ra      4    2    .7 TC=0.006
Rs      3    5    10m
Ls      5    30   .7n
M2      1    8    6    6   INTER
E2      8    6    4    1   2
.MODEL   INTER    NMOS(VTO=0  KP=10   LEVEL=1)
Cgdmax  7    4    25p
Rcgd    7    4    10meg
Dgd     6    4    DGD
Rdgd    4    6    10meg
.MODEL     DGD    D(M=0.53   CJO=25p   VJ=0.12)
M3      7    9    1    1   INTER
E3      9    1    4    1   -2
.ENDS 

*
* NDM3000 Q4 N-Ch ELECTRICAL MODEL
* ---------------------------
.SUBCKT  NDM3000Q4/FAI  20  10  30
Rg     10    1    3
M1      2    1    3    3    DMOS    L=1u   W=1u
.MODEL DMOS NMOS (VTO={1.5*{-0.00248*TEMP+1.062}}  KP={-0.0014*TEMP+7.55}  
+ THETA=0.086  VMAX=5E5  LEVEL=3)        
Cgs     1    3    359p
Rd     20    4    10m TC=0.0036
Dds     3    4    DDS
.MODEL     DDS    D(BV={20*{0.0008*TEMP+0.98}}   M=0.35  CJO=290p   VJ=0.9)
Dbody   3   20    DBODY
.MODEL   DBODY    D(IS=1.4E-13   N=1   RS=40m   TT=70n)
Ra      4    2    21m TC=0.0036
Rs      3    5    1m
Ls      5    30   0.9n
M2      1    8    6    6   INTER
E2      8    6    4    1   2
.MODEL   INTER    NMOS(VTO=0  KP=10   LEVEL=1)
Cgdmax  7    4    1050p
Rcgd    7    4    10meg
Dgd     6    4    DGD
Rdgd    4    6    10meg
.MODEL     DGD    D(M=0.325   CJO=1050p   VJ=0.039)
M3      7    9    1    1   INTER
E3      9    1    4    1   -2
.ENDS 

*
* NDM3000 Q6 N-Ch ELECTRICAL MODEL
* ---------------------------
.SUBCKT  NDM3000Q6/FAI  20  10  30
Rg     10    1    3
M1      2    1    3    3    DMOS    L=1u   W=1u
.MODEL DMOS NMOS (VTO={1.5*{-0.00248*TEMP+1.062}}  KP={-0.014*TEMP+7.55} 
+ THETA=0.086  VMAX=5E5  LEVEL=3)        
Cgs     1    3    359p
Rd     20    4    10m TC=0.0036
Dds     3    4    DDS
.MODEL     DDS    D(BV={20*{0.0008*TEMP+0.98}}   M=0.35  CJO=290p   VJ=0.9)
Dbody   3   20    DBODY
.MODEL   DBODY    D(IS=1.4E-13   N=1   RS=40m   TT=70n)
Ra      4    2    21m TC=0.0036
Rs      3    5    1m
Ls      5    30   0.9n
M2      1    8    6    6   INTER
E2      8    6    4    1   2
.MODEL   INTER    NMOS(VTO=0  KP=10   LEVEL=1)
Cgdmax  7    4    1050p
Rcgd    7    4    10meg
Dgd     6    4    DGD
Rdgd    4    6    10meg
.MODEL     DGD    D(M=0.325   CJO=1050p   VJ=0.039)
M3      7    9    1    1   INTER
E3      9    1    4    1   -2
.ENDS 

* NDP405A ELECTRICAL MODEL (TO-220 N-Ch DMOS)
* -----------------------------------------------
.SUBCKT  NDP405A/FAI  20  10  30
Rg  10  1  1
M1   2  1  3   3   DMOS    L=1u   W=1u
.MODEL  DMOS  NMOS(VTO={3.4*{-0.00264*TEMP+1.066}}  KP={-0.014*TEMP+6.55}  
+ THETA=0.056  VMAX=1.9E5  LEVEL=3)       
Cgs   1  3   310p                     
Rd   20  4   7.24m TC=0.0064
Dds   3  4   DDS
.MODEL   DDS   D(BV={50*{0.0008*TEMP+0.98}}   M=0.34  CJO=312p   VJ=1.2)
Dbody   3   20   DBODY
.MODEL   DBODY   D(IS=1.4E-13   N=1   RS=116m   TT=52n)
Ra    4    2    33m TC=0.0064
Rs    3    5    2m
Ls    5    30   5n
M2    1    8   6   6   INTER
E2    8    6   4   1   2
.MODEL   INTER   NMOS(VTO=0  KP=10   LEVEL=1)
Cgdmax   7   4    600p
Rcgd     7   4    10meg
Dgd      6   4    DGD
Rdgd     4   6    10meg
.MODEL    DGD   D(M=0.54   CJO=900p   VJ=0.214)
M3     7   9   1   1   INTER
E3     9   1   4   1   -2
.ENDS 
*=======================================================================
*
* NDP405AE ELECTRICAL MODEL (TO-220 N-Ch DMOS)
* ------------------------
.SUBCKT  NDP405AE/FAI  20  10  30
Rg  10  1  1
M1   2  1  3   3   DMOS    L=1u   W=1u
.MODEL  DMOS  NMOS(VTO={3.4*{-0.00264*TEMP+1.066}}  KP={-0.014*TEMP+6.55}  
+ THETA=0.056 VMAX=1.9E5  LEVEL=3)       
Cgs   1  3   310p                     
Rd   20  4   7.24m TC=0.0064
Dds   3  4   DDS
.MODEL   DDS   D(BV={50*{0.0008*TEMP+0.98}}   M=0.34  CJO=312p   VJ=1.2)
Dbody   3   20   DBODY
.MODEL   DBODY   D(IS=1.4E-13   N=1   RS=116m   TT=52n)
Ra    4    2    33m TC=0.0064
Rs    3    5    2m
Ls    5    30   5n
M2    1    8   6   6   INTER
E2    8    6   4   1   2
.MODEL   INTER   NMOS(VTO=0  KP=10   LEVEL=1)
Cgdmax   7   4    600p
Rcgd     7   4    10meg
Dgd      6   4    DGD
Rdgd     4   6    10meg
.MODEL    DGD   D(M=0.54   CJO=900p   VJ=0.214)
M3     7   9   1   1   INTER
E3     9   1   4   1   -2
.ENDS 
*$
*
*=======================================================================
*
* NDB405A ELECTRICAL MODEL (TO-263 N-Ch DMOS)
* ------------------------
.SUBCKT  NDB405A/FAI  20  10  30
Rg  10  1  1
M1   2  1  3   3   DMOS    L=1u   W=1u
.MODEL  DMOS  NMOS(VTO={3.4*{-0.00264*TEMP+1.066}}  KP={-0.014*TEMP+6.55}  
+ THETA=0.056 VMAX=1.9E5  LEVEL=3)       
Cgs   1  3   310p                     
Rd   20  4   7.24m TC=0.0064
Dds   3  4   DDS
.MODEL   DDS   D(BV={50*{0.0008*TEMP+0.98}}   M=0.34  CJO=312p   VJ=1.2)
Dbody   3   20   DBODY
.MODEL   DBODY   D(IS=1.4E-13   N=1   RS=116m   TT=52n)
Ra    4    2    33m TC=0.0064
Rs    3    5    2m
Ls    5    30   5n
M2    1    8   6   6   INTER
E2    8    6   4   1   2
.MODEL   INTER   NMOS(VTO=0  KP=10   LEVEL=1)
Cgdmax   7   4    600p
Rcgd     7   4    10meg
Dgd      6   4    DGD
Rdgd     4   6    10meg
.MODEL    DGD   D(M=0.54   CJO=900p   VJ=0.214)
M3     7   9   1   1   INTER
E3     9   1   4   1   -2
.ENDS 
*$
*
*=======================================================================
*
* NDB405AE ELECTRICAL MODEL (TO-263 N-Ch DMOS)
* ------------------------
.SUBCKT  NDB405AE/FAI  20  10  30
Rg  10  1  1
M1   2  1  3   3   DMOS    L=1u   W=1u
.MODEL  DMOS  NMOS(VTO={3.4*{-0.00264*TEMP+1.066}}  KP={-0.014*TEMP+6.55} 
+ THETA=0.056 VMAX=1.9E5  LEVEL=3)       
Cgs   1  3   310p                     
Rd   20  4   7.24m TC=0.0064
Dds   3  4   DDS
.MODEL   DDS   D(BV={50*{0.0008*TEMP+0.98}}   M=0.34  CJO=312p   VJ=1.2)
Dbody   3   20   DBODY
.MODEL   DBODY   D(IS=1.4E-13   N=1   RS=116m   TT=52n)
Ra    4    2    33m TC=0.0064
Rs    3    5    2m
Ls    5    30   5n
M2    1    8   6   6   INTER
E2    8    6   4   1   2
.MODEL   INTER   NMOS(VTO=0  KP=10   LEVEL=1)
Cgdmax   7   4    600p
Rcgd     7   4    10meg
Dgd      6   4    DGD
Rdgd     4   6    10meg
.MODEL    DGD   D(M=0.54   CJO=900p   VJ=0.214)
M3     7   9   1   1   INTER
E3     9   1   4   1   -2
.ENDS 
*$
*
*=======================================================================
*
* NDP405AL ELECTRICAL MODEL (TO-220 N-Ch DMOS)
* -------------------------
.SUBCKT  NDP405AL/FAI  20  10  30
Rg  10  1  1
M1   2  1  3   3   DMOS    L=1u   W=1u
.MODEL  DMOS  NMOS(VTO={1.3*{-0.00264*TEMP+1.066}}  KP={-0.017*TEMP+8.925} 
+ THETA=0.086 VMAX=2.2E5  LEVEL=3)       
Cgs   1  3   500p                     
Rd   20  4   8m TC=0.0072
Dds   3  4   DDS
.MODEL   DDS   D(BV={50*{0.00088*TEMP+0.976}}   M=0.36  CJO=303p   VJ=1.18)
Dbody   3   20   DBODY
.MODEL   DBODY   D(IS=1.4E-13   N=1   RS=119m   TT=53n)
Ra    4    2    24.5m TC=0.0072
Rs    3    5    2m
Ls    5    30   5n
M2    1    8   6   6   INTER
E2    8    6   4   1   2
.MODEL   INTER   NMOS(VTO=0  KP=10   LEVEL=1)
Cgdmax   7   4    1100p
Rcgd     7   4    10meg
Dgd      6   4    DGD
Rdgd     4   6    10meg
.MODEL    DGD   D(M=0.54   CJO=2500p   VJ=0.214)
M3     7   9   1   1   INTER
E3     9   1   4   1   -2
.ENDS 
*$
*
*=======================================================================
*
* NDP405AEL ELECTRICAL MODEL (TO-220 N-Ch DMOS)
* --------------------------
.SUBCKT  NDP405AEL/FAI  20  10  30
Rg  10  1  1
M1   2  1  3   3   DMOS    L=1u   W=1u
.MODEL  DMOS  NMOS(VTO={1.3*{-0.00264*TEMP+1.066}}  KP={-0.017*TEMP+8.925}  
+ THETA=0.086  VMAX=2.2E5  LEVEL=3)       
Cgs   1  3   500p                     
Rd   20  4   8m TC=0.0072
Dds   3  4   DDS
.MODEL   DDS   D(BV={50*{0.00088*TEMP+0.978}}   M=0.36  CJO=303p   VJ=1.18)
Dbody   3   20   DBODY
.MODEL   DBODY   D(IS=1.4E-13   N=1   RS=119m   TT=53n)
Ra    4    2    25.4m TC=0.0072
Rs    3    5    2m
Ls    5    30   5n
M2    1    8   6   6   INTER
E2    8    6   4   1   2
.MODEL   INTER   NMOS(VTO=0  KP=10   LEVEL=1)
Cgdmax   7   4    1100p
Rcgd     7   4    10meg
Dgd      6   4    DGD
Rdgd     4   6    10meg
.MODEL    DGD   D(M=0.54   CJO=2500p   VJ=0.214)
M3     7   9   1   1   INTER
E3     9   1   4   1   -2
.ENDS 
*$
*
*=======================================================================
*
* NDB405AL ELECTRICAL MODEL (TO-263 N-Ch DMOS)
* -------------------------
.SUBCKT  NDB405AL/FAI  20  10  30
Rg  10  1  1
M1   2  1  3   3   DMOS    L=1u   W=1u
.MODEL  DMOS  NMOS(VTO={1.3*{-0.00264*TEMP+1.066}}  KP={-0.017*TEMP+8.925} 
+ THETA=0.086  VMAX=2.2E5  LEVEL=3)       
Cgs   1  3   500p                     
Rd   20  4   8m TC=0.0072
Dds   3  4   DDS
.MODEL   DDS   D(BV={50*{0.00088*TEMP+0.978}}   M=0.36  CJO=303p   VJ=1.18)
Dbody   3   20   DBODY
.MODEL   DBODY   D(IS=1.4E-13   N=1   RS=119m   TT=53n)
Ra    4    2    25.3m TC=0.0072
Rs    3    5    2m
Ls    5    30   5n
M2    1    8   6   6   INTER
E2    8    6   4   1   2
.MODEL   INTER   NMOS(VTO=0  KP=10   LEVEL=1)
Cgdmax   7   4    1100p
Rcgd     7   4    10meg
Dgd      6   4    DGD
Rdgd     4   6    10meg
.MODEL    DGD   D(M=0.54   CJO=2500p   VJ=0.214)
M3     7   9   1   1   INTER
E3     9   1   4   1   -2
.ENDS 
*$
*
*=======================================================================
*
* NDB405AEL ELECTRICAL MODEL (TO-263 N-Ch DMOS)
* -------------------------
.SUBCKT  NDB405AEL/FAI  20  10  30
Rg  10  1  1
M1   2  1  3   3   DMOS    L=1u   W=1u
.MODEL  DMOS  NMOS(VTO={1.3*{-0.00264*TEMP+1.066}}  KP={-0.017*TEMP+8.925}  
+ THETA=0.086 VMAX=2.2E5  LEVEL=3)       
Cgs   1  3   500p                     
Rd   20  4   8m TC=0.0072
Dds   3  4   DDS
.MODEL   DDS   D(BV={50*{0.00088*TEMP+0.978}}   M=0.36  CJO=303p   VJ=1.18)
Dbody   3   20   DBODY
.MODEL   DBODY   D(IS=1.4E-13   N=1   RS=119m   TT=53n)
Ra    4    2    25.3m TC=0.0072
Rs    3    5    2m
Ls    5    30   5n
M2    1    8   6   6   INTER
E2    8    6   4   1   2
.MODEL   INTER   NMOS(VTO=0  KP=10   LEVEL=1)
Cgdmax   7   4    1100p
Rcgd     7   4    10meg
Dgd      6   4    DGD
Rdgd     4   6    10meg
.MODEL    DGD   D(M=0.54   CJO=2500p   VJ=0.214)
M3     7   9   1   1   INTER
E3     9   1   4   1   -2
.ENDS 
*$
*
*=======================================================================
*
* NDP405B ELECTRICAL MODEL (TO-220 N-Ch DMOS)
* ------------------------
.SUBCKT  NDP405B/FAI  20  10  30
Rg  10  1  1
M1   2  1  3   3   DMOS    L=1u   W=1u
.MODEL  DMOS  NMOS(VTO={3.4*{-0.00264*TEMP+1.066}}  KP={-0.014*TEMP+6.55} 
+ THETA=0.056 VMAX=1.9E5  LEVEL=3)       
Cgs   1  3   310p                     
Rd   20  4   13m TC=0.0064
Dds   3  4   DDS
.MODEL   DDS   D(BV={50*{0.0008*TEMP+0.978}}   M=0.34  CJO=312p   VJ=1.2)
Dbody   3   20   DBODY
.MODEL   DBODY   D(IS=1.4E-13   N=1   RS=116m   TT=52n)
Ra    4    2    55m TC=0.0064
Rs    3    5    2m
Ls    5    30   5n
M2    1    8   6   6   INTER
E2    8    6   4   1   2
.MODEL   INTER   NMOS(VTO=0  KP=10   LEVEL=1)
Cgdmax   7   4    600p
Rcgd     7   4    10meg
Dgd      6   4    DGD
Rdgd     4   6    10meg
.MODEL    DGD   D(M=0.54   CJO=900p   VJ=0.214)
M3     7   9   1   1   INTER
E3     9   1   4   1   -2
.ENDS 
*$
*
*=======================================================================
*
* NDP405BE ELECTRICAL MODEL (TO-220 N-Ch DMOS)
* ------------------------
.SUBCKT  NDP405BE/FAI  20  10  30
Rg  10  1  1
M1   2  1  3   3   DMOS    L=1u   W=1u
.MODEL  DMOS  NMOS(VTO={3.4*{-0.00264*TEMP+1.066}}  KP={-0.014*TEMP+6.55}  
+ THETA=0.056 VMAX=1.9E5  LEVEL=3)       
Cgs   1  3   310p                     
Rd   20  4   13m TC=0.0064
Dds   3  4   DDS
.MODEL   DDS   D(BV={50*{0.0008*TEMP+0.98}}   M=0.34  CJO=312p   VJ=1.2)
Dbody   3   20   DBODY
.MODEL   DBODY   D(IS=1.4E-13   N=1   RS=116m   TT=52n)
Ra    4    2    55m TC=0.0064
Rs    3    5    2m
Ls    5    30   5n
M2    1    8   6   6   INTER
E2    8    6   4   1   2
.MODEL   INTER   NMOS(VTO=0  KP=10   LEVEL=1)
Cgdmax   7   4    600p
Rcgd     7   4    10meg
Dgd      6   4    DGD
Rdgd     4   6    10meg
.MODEL    DGD   D(M=0.54   CJO=900p   VJ=0.214)
M3     7   9   1   1   INTER
E3     9   1   4   1   -2
.ENDS 
*$
*
*=======================================================================
*
* NDB405B ELECTRICAL MODEL (TO-263 N-Ch DMOS)
* ------------------------
.SUBCKT  NDB405B/FAI  20  10  30
Rg  10  1  1
M1   2  1  3   3   DMOS    L=1u   W=1u
.MODEL  DMOS  NMOS(VTO={3.4*{-0.00264*TEMP+1.066}}  KP={-0.014*TEMP+6.55}
+  THETA=0.056  VMAX=1.9E5  LEVEL=3)       
Cgs   1  3   310p                     
Rd   20  4   13m TC=0.0064
Dds   3  4   DDS
.MODEL   DDS   D(BV={50*{0.0008*TEMP+0.98}}   M=0.34  CJO=312p   VJ=1.2)
Dbody   3   20   DBODY
.MODEL   DBODY   D(IS=1.4E-13   N=1   RS=116m   TT=52n)
Ra    4    2    55m TC=0.0064
Rs    3    5    2m
Ls    5    30   5n
M2    1    8   6   6   INTER
E2    8    6   4   1   2
.MODEL   INTER   NMOS(VTO=0  KP=10   LEVEL=1)
Cgdmax   7   4    600p
Rcgd     7   4    10meg
Dgd      6   4    DGD
Rdgd     4   6    10meg
.MODEL    DGD   D(M=0.54   CJO=900p   VJ=0.214)
M3     7   9   1   1   INTER
E3     9   1   4   1   -2
.ENDS 
*$
*=======================================================================
*
* NDB405BE ELECTRICAL MODEL (TO-263 N-Ch DMOS)
* ------------------------
.SUBCKT  NDB405BE/FAI  20  10  30
Rg  10  1  1
M1   2  1  3   3   DMOS    L=1u   W=1u
.MODEL  DMOS  NMOS(VTO={3.4*{-0.00264*TEMP+1.066}}  KP={-0.014*TEMP+6.55} 
+  THETA=0.056 VMAX=1.9E5  LEVEL=3)       
Cgs   1  3   310p                     
Rd   20  4   13m TC=0.0064
Dds   3  4   DDS
.MODEL   DDS   D(BV={50*{0.0008*TEMP+0.98}}   M=0.34  CJO=312p   VJ=1.2)
Dbody   3   20   DBODY
.MODEL   DBODY   D(IS=1.4E-13   N=1   RS=116m   TT=52n)
Ra    4    2    55m TC=0.0064
Rs    3    5    2m
Ls    5    30   5n
M2    1    8   6   6   INTER
E2    8    6   4   1   2
.MODEL   INTER   NMOS(VTO=0  KP=10   LEVEL=1)
Cgdmax   7   4    600p
Rcgd     7   4    10meg
Dgd      6   4    DGD
Rdgd     4   6    10meg
.MODEL    DGD   D(M=0.54   CJO=900p   VJ=0.214)
M3     7   9   1   1   INTER
E3     9   1   4   1   -2
.ENDS 
*$
*=======================================================================
*
* NDP405BL ELECTRICAL MODEL (TO-220 N-Ch DMOS)
* -------------------------
.SUBCKT  NDP405BL/FAI  20  10  30
Rg  10  1  1
M1   2  1  3   3   DMOS    L=1u   W=1u
.MODEL  DMOS  NMOS(VTO={1.3*{-0.00264*TEMP+1.066}}  KP={-0.017*TEMP+8.925} 
+ THETA=0.086  VMAX=2.2E5  LEVEL=3)       
Cgs   1  3   500p                     
Rd   20  4   14m TC=0.0072
Dds   3  4   DDS
.MODEL   DDS   D(BV={50*{0.00088*TEMP+0.978}}   M=0.36  CJO=303p   VJ=1.18)
Dbody   3   20   DBODY
.MODEL   DBODY   D(IS=1.4E-13   N=1   RS=119m   TT=53n)
Ra    4    2    47m TC=0.0072
Rs    3    5    2m
Ls    5    30   5n
M2    1    8   6   6   INTER
E2    8    6   4   1   2
.MODEL   INTER   NMOS(VTO=0  KP=10   LEVEL=1)
Cgdmax   7   4    1100p
Rcgd     7   4    10meg
Dgd      6   4    DGD
Rdgd     4   6    10meg
.MODEL    DGD   D(M=0.54   CJO=2500p   VJ=0.214)
M3     7   9   1   1   INTER
E3     9   1   4   1   -2
.ENDS 
*$
*=======================================================================
*
* NDP405BEL ELECTRICAL MODEL (TO-220 N-Ch DMOS)
* --------------------------
.SUBCKT  NDP405BEL/FAI  20  10  30
Rg  10  1  1
M1   2  1  3   3   DMOS    L=1u   W=1u
.MODEL  DMOS  NMOS(VTO={1.3*{-0.00264*TEMP+1.066}}  KP={-0.017*TEMP+8.925}  
+ THETA=0.086  VMAX=2.2E5  LEVEL=3)       
Cgs   1  3   500p                     
Rd   20  4   14m TC=0.0072
Dds   3  4   DDS
.MODEL   DDS   D(BV={50*{0.00088*TEMP+0.978}}   M=0.36  CJO=303p   VJ=1.18)
Dbody   3   20   DBODY
.MODEL   DBODY   D(IS=1.4E-13   N=1   RS=119m   TT=53n)
Ra    4    2    47m TC=0.0072
Rs    3    5    2m
Ls    5    30   5n
M2    1    8   6   6   INTER
E2    8    6   4   1   2
.MODEL   INTER   NMOS(VTO=0  KP=10   LEVEL=1)
Cgdmax   7   4    1100p
Rcgd     7   4    10meg
Dgd      6   4    DGD
Rdgd     4   6    10meg
.MODEL    DGD   D(M=0.54   CJO=2500p   VJ=0.214)
M3     7   9   1   1   INTER
E3     9   1   4   1   -2
.ENDS 
*$
*=======================================================================
*
* NDB405BL ELECTRICAL MODEL (TO-263 N-Ch DMOS)
* ------------------------
.SUBCKT  NDB405BL/FAI  20  10  30
Rg  10  1  1
M1   2  1  3   3   DMOS    L=1u   W=1u
.MODEL  DMOS  NMOS(VTO={1.3*{-0.00264*TEMP+1.066}}  KP={-0.017*TEMP+8.925}
+  THETA=0.086 VMAX=2.2E5  LEVEL=3)       
Cgs   1  3   500p                     
Rd   20  4   14m TC=0.0072
Dds   3  4   DDS
.MODEL   DDS   D(BV={50*{0.00088*TEMP+0.978}}   M=0.36  CJO=303p   VJ=1.18)
Dbody   3   20   DBODY
.MODEL   DBODY   D(IS=1.4E-13   N=1   RS=119m   TT=53n)
Ra    4    2    47m TC=0.0072
Rs    3    5    2m
Ls    5    30   5n
M2    1    8   6   6   INTER
E2    8    6   4   1   2
.MODEL   INTER   NMOS(VTO=0  KP=10   LEVEL=1)
Cgdmax   7   4    1100p
Rcgd     7   4    10meg
Dgd      6   4    DGD
Rdgd     4   6    10meg
.MODEL    DGD   D(M=0.54   CJO=2500p   VJ=0.214)
M3     7   9   1   1   INTER
E3     9   1   4   1   -2
.ENDS 
*$
*=======================================================================
*
* NDB405BEL ELECTRICAL MODEL (TO-263 N-Ch DMOS)
* --------------------------
.SUBCKT  NDB405BEL/FAI  20  10  30
Rg  10  1  1
M1   2  1  3   3   DMOS    L=1u   W=1u
.MODEL  DMOS  NMOS(VTO={1.3*{-0.00264*TEMP+1.066}} KP={-0.017*TEMP+8.925}
+ THETA=0.086  VMAX=2.2E5  LEVEL=3)       
Cgs   1  3   500p                     
Rd   20  4   14m TC=0.0072
Dds   3  4   DDS
.MODEL   DDS   D(BV={50*{0.00088*TEMP+0.978}}   M=0.36  CJO=303p   VJ=1.18)
Dbody   3   20   DBODY
.MODEL   DBODY   D(IS=1.4E-13   N=1   RS=119m   TT=53n)
Ra    4    2    47m TC=0.0072
Rs    3    5    2m
Ls    5    30   5n
M2    1    8   6   6   INTER
E2    8    6   4   1   2
.MODEL   INTER   NMOS(VTO=0  KP=10   LEVEL=1)
Cgdmax   7   4    1100p
Rcgd     7   4    10meg
Dgd      6   4    DGD
Rdgd     4   6    10meg
.MODEL    DGD   D(M=0.54   CJO=2500p   VJ=0.214)
M3     7   9   1   1   INTER
E3     9   1   4   1   -2
.ENDS 
*$
*=======================================================================
*
*NDB4050 ELECTRICAL MODEL (TO-263 N-Ch DMOS)
* ----------------------
.SUBCKT  NDB4050/FAI  20  10  30
Rg  10  1  3
M1   2  1  3   3   DMOS    L=1u   W=1u
.MODEL  DMOS  NMOS(VTO={3.1*{-0.00264*TEMP+1.066}}  KP={-0.014*TEMP+6.55}
+  THETA=0.056 VMAX=1.9E5  LEVEL=3)       
Cgs   1  3   310p                     
Rd   20  4    7m TC=0.0072
Dds   3  4   DDS
.MODEL   DDS   D(BV={50*{0.0008*TEMP+0.98}}   M=0.34  CJO=312p   VJ=1.2)
Dbody   3   20   DBODY
.MODEL   DBODY   D(IS=1.4E-13   N=1   RS=116m   TT=52n)
Ra    4    2    31m TC=0.0072
Rs    3    5    2m
Ls    5    30   5n
M2    1    8   6   6   INTER
E2    8    6   4   1   2
.MODEL   INTER   NMOS(VTO=0  KP=10   LEVEL=1)
Cgdmax   7   4    600p
Rcgd     7   4    10meg
Dgd      6   4    DGD
Rdgd     4   6    10meg
.MODEL    DGD   D(M=0.54  CJO=900p   VJ=0.214)

M3     7   9   1   1   INTER
E3     9   1   4   1   -2
.ENDS 
*$
*=====================================================================
*
*NDP4050 ELECTRICAL MODEL (TO-220 N-Ch DMOS)
* ----------------------
.SUBCKT  NDP4050/FAI  20  10  30
Rg  10  1  3
M1   2  1  3   3   DMOS    L=1u   W=1u
.MODEL  DMOS  NMOS(VTO={3.1*{-0.00264*TEMP+1.066}}  KP={-0.014*TEMP+6.55} 
+ THETA=0.056  VMAX=1.9E5  LEVEL=3)       
Cgs   1  3   310p                     
Rd   20  4    7m TC=0.0072
Dds   3  4   DDS
.MODEL   DDS   D(BV={50*{0.0008*TEMP+0.98}}   M=0.34  CJO=312p   VJ=1.2)
Dbody   3   20   DBODY
.MODEL   DBODY   D(IS=1.4E-13   N=1   RS=116m   TT=52n)
Ra    4    2    31m TC=0.0072
Rs    3    5    2m
Ls    5    30   5n
M2    1    8   6   6   INTER

E2    8    6   4   1   2
.MODEL   INTER   NMOS(VTO=0  KP=10   LEVEL=1)
Cgdmax   7   4    600p
Rcgd     7   4    10meg
Dgd      6   4    DGD
Rdgd     4   6    10meg
.MODEL    DGD   D(M=0.54  CJO=900p   VJ=0.214)
M3     7   9   1   1   INTER
E3     9   1   4   1   -2
.ENDS 

*
*NDB4060 ELECTRICAL MODEL (TO-263 N-Ch DMOS)
* ----------------------
.SUBCKT  NDB4060/FAI  20  10  30
Rg  10  1  3
M1   2  1  3   3   DMOS    L=1u   W=1u
.MODEL  DMOS  NMOS(VTO={3.1*{-0.00264*TEMP+1.066}}  KP={-0.014*TEMP+6.55}

+  THETA=0.056  VMAX=1.9E5  LEVEL=3)       
Cgs   1  3   310p                     
Rd   20  4    7m TC=0.0064
Dds   3  4   DDS
.MODEL   DDS   D(BV={60*{0.0008*TEMP+0.98}}   M=0.34  CJO=312p   VJ=1.2)
Dbody   3   20   DBODY
.MODEL   DBODY   D(IS=1.4E-13   N=1   RS=116m   TT=52n)
Ra    4    2    31m TC=0.0064
Rs    3    5    2m
Ls    5    30   5n
M2    1    8   6   6   INTER
E2    8    6   4   1   2
.MODEL   INTER   NMOS(VTO=0  KP=10   LEVEL=1)
Cgdmax   7   4    600p
Rcgd     7   4    10meg
Dgd      6   4    DGD
Rdgd     4   6    10meg
.MODEL    DGD   D(M=0.54  CJO=900p   VJ=0.214)
M3     7   9   1   1   INTER
E3     9   1   4   1   -2
.ENDS 
*$
*====================================================================
*
*NDP4060 ELECTRICAL MODEL (TO-220 N-Ch DMOS)
* ----------------------
.SUBCKT  NDP4060/FAI  20  10  30
Rg  10  1  3
M1   2  1  3   3   DMOS    L=1u   W=1u
.MODEL  DMOS  NMOS(VTO={3.1*{-0.00264*TEMP+1.066}}  KP={-0.014*TEMP+6.55}
+  THETA=0.056 VMAX=1.9E5  LEVEL=3)       
Cgs   1  3   310p                     
Rd   20  4    7m TC=0.0064
Dds   3  4   DDS
.MODEL   DDS   D(BV={60*{0.0008*TEMP+0.98}}   M=0.34  CJO=312p   VJ=1.2)
Dbody   3   20   DBODY
.MODEL   DBODY   D(IS=1.4E-13   N=1   RS=116m   TT=52n)
Ra    4    2    31m TC=0.0064
Rs    3    5    2m
Ls    5    30   5n
M2    1    8   6   6   INTER
E2    8    6   4   1   2
.MODEL   INTER   NMOS(VTO=0  KP=10   LEVEL=1)
Cgdmax   7   4    600p
Rcgd     7   4    10meg
Dgd      6   4    DGD
Rdgd     4   6    10meg
.MODEL    DGD   D(M=0.54  CJO=900p   VJ=0.214)
M3     7   9   1   1   INTER
E3     9   1   4   1   -2
.ENDS 

*
* NDP406A ELECTRICAL MODEL (TO-220 N-Ch DMOS)
* ------------------------
.SUBCKT  NDP406A/FAI  20  10  30
Rg  10  1  3
M1   2  1  3   3   DMOS    L=1u   W=1u
.MODEL  DMOS  NMOS(VTO={3.4*{-0.00264*TEMP+1.066}}  KP={-0.014*TEMP+6.55}
+  THETA=0.056 VMAX=1.9E5  LEVEL=3)       
Cgs   1  3   310p                     
Rd   20  4    7.24m TC=0.0064
Dds   3  4   DDS