* FDV304P PRELIMINARY ELECTRICAL MODEL (SOT-23 Single P-Ch DMOS)
* ------------------------
.SUBCKT  FDV304P/FAI  20  10  30
Rg     10    1    1
M1      2    1    3    3    DMOS    L=1u   W=1u
.MODEL DMOS PMOS (VTO={-0.8*(-0.00232*TEMP+1.058)}  KP={-0.0009*TEMP+0.8225}
+   THETA=0.096 VMAX=3.8E5  LEVEL=3)
Cgs     1    3    130p
Rd     20    4    0.25 TC=0.004
Dds     4    3    DDS
.MODEL     DDS    D(BV={25*(0.00088*TEMP+0.978)}   M=0.35  CJO=100p   VJ=1.0)
Dbody   20   3    DBODY
.MODEL   DBODY    D(IS=1E-12   N=1   RS=12.7m   TT=25n)
Ra      4    2    0.25 TC=0.004
Rs      3    5    10m
Ls      5    30   0.5n
M2      1    8    6    6   INTER
E2      8    6    4    1   2
.MODEL   INTER    PMOS(VTO=0  KP=10   LEVEL=1)
Cgdmax  7    4    110p
Rcgd    7    4    10meg
Dgd     4    6    DGD
Rdgd    4    6    10meg
.MODEL     DGD    D(M=0.55   CJO=110p   VJ=0.120)
M3      7    9    1    1   INTER
E3      9    1    4    1   -2
.ENDS 

* FDC6322CP ELECTRICAL MODEL (PRELIMINARY) (SuperSOT-6 Complementary P-Ch DMOS)
* ---------------------------------------------------------------
.SUBCKT  FDC6322CP/FAI  20  10  30
Rg     10    1    1
M1      2    1    3    3    DMOS    L=1u   W=1u
.MODEL DMOS PMOS (VTO={-0.8*(-0.00232*TEMP+1.058)}  KP={-0.0009*TEMP+0.8225}
+   THETA=0.096 VMAX=3.8E5  LEVEL=3)
Cgs     1    3    130p
Rd     20    4    0.25 TC=0.004
Dds     4    3    DDS
.MODEL     DDS    D(BV={25*(0.00088*TEMP+0.978)}   M=0.35  CJO=100p   VJ=1.0)
Dbody   20   3    DBODY
.MODEL   DBODY    D(IS=1E-12   N=1   RS=12.7m   TT=25n)
Ra      4    2    0.25 TC=0.004
Rs      3    5    10m
Ls      5    30   0.5n

M2      1    8    6    6   INTER
E2      8    6    4    1   2
.MODEL   INTER    PMOS(VTO=0  KP=10   LEVEL=1)
Cgdmax  7    4    110p
Rcgd    7    4    10meg
Dgd     4    6    DGD
Rdgd    4    6    10meg
.MODEL     DGD    D(M=0.55   CJO=110p   VJ=0.120)
M3      7    9    1    1   INTER
E3      9    1    4    1   -2
.ENDS 

* (SOIC-16 3 Phase Brushless Motor Driver) (*** PRELIMINARY MODELS ***)
* NDM3000 Q1 P-Ch ELECTRICAL MODEL
* ---------------------------
.SUBCKT  NDM3000Q1/FAI  20  10  30
Rg     10    1    3
M1      2    1    3    3    DMOS    L=1u   W=1u
.MODEL  DMOS PMOS (VTO={-1.7*{-0.00216*TEMP+1.054}} KP={-0.005*TEMP+4.525}
+ THETA=0.086  VMAX=5E5 TOX=4.25E-8 LEVEL=3)        
Cgs     1    3    200p
Rd     20    4    60m TC=0.0036
Dds     4    3    DDS 
.MODEL     DDS    D(BV={20*{0.00064*TEMP+0.984}}   M=0.25  CJO=310p   VJ=0.51)
Dbody   20   3    DBODY
.MODEL   DBODY    D(IS=1.4E-13   N=1   RS=90m   TT=29n)
Ra      4    2    59m TC=0.0036
Rs      3    5    2m
Ls      5    30   0.9n
M2      1    8    6    6   INTER
E2      8    6    4    1   2
.MODEL  INTER     PMOS(VTO=0  KP=10   LEVEL=1)
Cgdmax  7    4    1100p
Rcgd    7    4    10meg
Dgd     4    6    DGD
Rdgd    4    6    10meg
.MODEL     DGD    D(M=0.31   CJO=600p   VJ=0.18)
M3      7    9    1    1   INTER
E3      9    1    4    1   -2
.ENDS 

* NDM3000 Q3 P-Ch ELECTRICAL MODEL
* ---------------------------
.SUBCKT  NDM3000Q3/FAI  20  10  30
Rg     10    1    3
M1      2    1    3    3    DMOS    L=1u   W=1u
.MODEL  DMOS PMOS (VTO={-1.7*{-0.00216*TEMP+1.054}}  KP={-0.005*TEMP+4.525}
+ THETA=0.086  VMAX=5E5 TOX=4.25E-8 LEVEL=3)        
Cgs     1    3    200p
Rd     20    4    60m TC=0.0036
Dds     4    3    DDS 
.MODEL     DDS    D(BV={20*{0.00064*TEMP+0.984}}   M=0.25  CJO=310p   VJ=0.51)
Dbody   20   3    DBODY
.MODEL   DBODY    D(IS=1.4E-13   N=1   RS=90m   TT=29n)
Ra      4    2    59m TC=0.0036
Rs      3    5    2m
Ls      5    30   0.9n
M2      1    8    6    6   INTER
E2      8    6    4    1   2
.MODEL  INTER     PMOS(VTO=0  KP=10   LEVEL=1)
Cgdmax  7    4    1100p
Rcgd    7    4    10meg
Dgd     4    6    DGD
Rdgd    4    6    10meg
.MODEL     DGD    D(M=0.31   CJO=600p   VJ=0.18)
M3      7    9    1    1   INTER
E3      9    1    4    1   -2
.ENDS 

* NDM3000 Q5 P-Ch ELECTRICAL MODEL
* ---------------------------
.SUBCKT  NDM3000Q5/FAI  20  10  30
Rg     10    1    3
M1      2    1    3    3    DMOS    L=1u   W=1u
.MODEL  DMOS PMOS (VTO={-1.7*{-0.00216*TEMP+1.054}}  KP={-0.005*TEMP+4.525}
+ THETA=0.086 VMAX=5E5 TOX=4.25E-8 LEVEL=3)        
Cgs     1    3    200p
Rd     20    4    60m TC=0.0036
Dds     4    3    DDS 
.MODEL     DDS    D(BV={20*{0.00064*TEMP+0.984}}   M=0.25  CJO=310p   VJ=0.51)
Dbody   20   3    DBODY
.MODEL   DBODY    D(IS=1.4E-13   N=1   RS=90m   TT=29n)
Ra      4    2    59m TC=0.0036
Rs      3    5    2m
Ls      5    30   0.9n
M2      1    8    6    6   INTER
E2      8    6    4    1   2
.MODEL  INTER     PMOS(VTO=0  KP=10   LEVEL=1)
Cgdmax  7    4    1100p
Rcgd    7    4    10meg
Dgd     4    6    DGD
Rdgd    4    6    10meg
.MODEL     DGD    D(M=0.31   CJO=600p   VJ=0.18)
M3      7    9    1    1   INTER
E3      9    1    4    1   -2
.ENDS 


* NDS332P ELECTRICAL MODEL (SuperSOT-3 SOT-23 P-Ch DMOS)
* ------------------------
.SUBCKT  NDS332P/FAI  20  10  30
Rg     10    1    1
M1      2    1    3    3    DMOS    L=1u   W=1u
.MODEL DMOS PMOS (VTO={-0.65*{-0.00148*TEMP+1.037}}  KP={-0.006*TEMP+3.25} 
+ THETA=0.096  VMAX=4E5  LEVEL=3)        
Cgs     1    3    170p
Rd     20    4    30m TC=0.00416
Dds     4    3    DDS
.MODEL     DDS    D(BV={20*{0.00068*TEMP+0.983}}   M=0.3  CJO=200p   VJ=0.8)
Dbody   20   3    DBODY
.MODEL   DBODY    D(IS=1.4E-13   N=1   RS=40m   TT=100n)
Ra      4    2    160m TC=0.00416
Rs      3    5    1m
Ls      5    30   0.5n
M2      1    8    6    6   INTER
E2      8    6    4    1   2
.MODEL   INTER    PMOS(VTO=0  KP=10   LEVEL=1)
Cgdmax  7    4    610p
Rcgd    7    4    10meg
Dgd     4    6    DGD
Rdgd    4    6    10meg
.MODEL     DGD    D(M=0.5   CJO=290p   VJ=0.12)
M3      7    9    1    1   INTER
E3      9    1    4    1   -2
.ENDS 

* NDS336P ELECTRICAL MODEL (SuperSOT-3 SOT-23 P-Ch DMOS)
* ------------------------
.SUBCKT  NDS336P/FAI  20  10  30
Rg     10    1    1
M1      2    1    3    3    DMOS    L=1u   W=1u
.MODEL DMOS PMOS (VTO={-0.9*{-0.00272*TEMP+1.068}}  KP={-0.012*TEMP+5} 
+ THETA=0.096  VMAX=4E5  LEVEL=3)        
Cgs     1    3    450p
Rd     20    4    20m TC=0.0044
Dds     4    3    DDS
.MODEL     DDS    D(BV={20*{0.000384*TEMP+0.9904}}   M=0.3  CJO=450p   VJ=0.8)
Dbody   20   3    DBODY
.MODEL   DBODY    D(IS=1.4E-13   N=1   RS=40m   TT=100n)
Ra      4    2    100m TC=0.0044
Rs      3    5    1m
Ls      5    30   0.5n
M2      1    8    6    6   INTER
E2      8    6    4    1   2
.MODEL   INTER    PMOS(VTO=0  KP=10   LEVEL=1)
Cgdmax  7    4    710p
Rcgd    7    4    10meg
Dgd     4    6    DGD
Rdgd    4    6    10meg
.MODEL     DGD    D(M=0.5   CJO=510p   VJ=0.12)
M3      7    9    1    1   INTER
E3      9    1    4    1   -2
.ENDS 

* NDS0605 ELECTRICAL MODEL (SOT-23 Single P-Ch DMOS)
* ------------------------
.SUBCKT  NDS0605/FAI  20  10  30
Rg     10    1    1
M1      2    1    3    3    DMOS    L=1u   W=1u
.MODEL DMOS PMOS (VTO={-1.9{-0.0012*TEMP+1.03}}  KP={-0.0006*TEMP+0.315}
+   THETA=0.086 VMAX=3.8E5  LEVEL=3)        
Cgs     1    3    40p
Rd     20    4    1.4 TC=0.0064
Dds     4    3    DDS
.MODEL     DDS    D(BV={60*{0.00096*TEMP+0.976}}   M=0.35  CJO=100p   VJ=1.0)
Dbody   20   3    DBODY
.MODEL   DBODY    D(IS=1E-12   N=1   RS=12.7m   TT=25n)
Ra      4    2    1.2 TC=0.0064
Rs      3    5    10m
Ls      5    30   0.5n
M2      1    8    6    6   INTER
E2      8    6    4    1   2
.MODEL   INTER    PMOS(VTO=0  KP=10   LEVEL=1)
Cgdmax  7    4    85p
Rcgd    7    4    10meg
Dgd     4    6    DGD
Rdgd    4    6    10meg
.MODEL     DGD    D(M=0.55   CJO=85p   VJ=0.120)
M3      7    9    1    1   INTER
E3      9    1    4    1   -2
.ENDS 

* NDS0610 ELECTRICAL MODEL (SOT-23 Single P-Ch DMOS)
* ------------------------
.SUBCKT  NDS0610/FAI  20  10  30
Rg     10    1    1
M1      2    1    3    3    DMOS    L=1u   W=1u
.MODEL DMOS PMOS (VTO={-1.9*{-0.0012*TEMP+1.03}}  KP={-0.0006*TEMP+0.315} 
+ THETA=0.086  VMAX=3.8E5  LEVEL=3)        
Cgs     1    3    40p
Rd     20    4    1.4 TC=0.0064
Dds     4    3    DDS
.MODEL     DDS    D(BV={60*{0.00096*TEMP+0.976}}   M=0.35  CJO=100p   VJ=1.0)
Dbody   20   3    DBODY
.MODEL   DBODY    D(IS=1E-12   N=1   RS=12.7m   TT=25n)
Ra      4    2    1.2 TC=0.0064
Rs      3    5    10m
Ls      5    30   0.5n
M2      1    8    6    6   INTER
E2      8    6    4    1   2
.MODEL   INTER    PMOS(VTO=0  KP=10   LEVEL=1)
Cgdmax  7    4    85p
Rcgd    7    4    10meg
Dgd     4    6    DGD
Rdgd    4    6    10meg
.MODEL     DGD    D(M=0.55   CJO=85p   VJ=0.120)
M3      7    9    1    1   INTER
E3      9    1    4    1   -2
.ENDS 

* NDS352P ELECTRICAL MODEL (SuperSOT-3 SOT-23 P-Ch DMOS)
* ------------------------
.SUBCKT  NDS352P/FAI  20  10  30
Rg     10    1    1
M1      2    1    3    3    DMOS    L=1u   W=1u
.MODEL DMOS PMOS (VTO={-2.3*{-0.00184*TEMP+1.046}}  KP={-0.003*TEMP+2.075} 
+ THETA=0.096  VMAX=4E5  LEVEL=3)        
Cgs     1    3    170p
Rd     20    4    30m TC=0.00248
Dds     4    3    DDS
.MODEL     DDS    D(BV={30*{0.0006*TEMP+0.985}}   M=0.3  CJO=200p   VJ=0.8)
Dbody   20   3    DBODY
.MODEL   DBODY    D(IS=1.4E-13   N=1   RS=40m   TT=100n)
Ra      4    2    160m TC=0.00248
Rs      3    5    1m
Ls      5    30   0.5n
M2      1    8    6    6   INTER
E2      8    6    4    1   2
.MODEL   INTER    PMOS(VTO=0  KP=10   LEVEL=1)
Cgdmax  7    4    230p
Rcgd    7    4    10meg
Dgd     4    6    DGD
Rdgd    4    6    10meg
.MODEL     DGD    D(M=0.5   CJO=230p   VJ=0.12)
M3      7    9    1    1   INTER
E3      9    1    4    1   -2
.ENDS 

* NDS356P ELECTRICAL MODEL (SuperSOT-3 SOT-23 N-Ch DMOS)
* ------------------------
.SUBCKT  NDS356P/FAI  20  10  30
Rg     10    1    1
M1      2    1    3    3    DMOS    L=1u   W=1u
.MODEL DMOS PMOS (VTO={-2.1*{-0.00216*TEMP+1.054}}  KP={-0.005*TEMP+3.825}
+  THETA=0.096  VMAX=4E5  LEVEL=3)        
Cgs     1    3    280p
Rd     20    4    10m TC=0.00184
Dds     4    3    DDS
.MODEL     DDS    D(BV={30*{0.006*TEMP+0.85}}   M=0.3  CJO=200p   VJ=0.8)
Dbody   20   3    DBODY
.MODEL   DBODY    D(IS=1.4E-13   N=1   RS=40m   TT=100n)
Ra      4    2    65m TC=0.00184
Rs      3    5    1m
Ls      5    30   0.5n
M2      1    8    6    6   INTER
E2      8    6    4    1   2
.MODEL   INTER    PMOS(VTO=0  KP=10   LEVEL=1)
Cgdmax  7    4    360p
Rcgd    7    4    10meg
Dgd     4    6    DGD
Rdgd    4    6    10meg
.MODEL     DGD    D(M=0.5   CJO=360p   VJ=0.12)
M3      7    9    1    1   INTER
E3      9    1    4    1   -2
.ENDS 

* NDS8433 ELECTRICAL MODEL  (SO-8 Single P-Ch DMOS)
* ------------------------
.SUBCKT  NDS8433/FAI  20  10  30
Rg     10    1    3
M1      2    1    3    3    DMOS    L=1u   W=1u
.MODEL DMOS PMOS (VTO={-1.1*{-0.00328*TEMP+1.082}}  KP={-0.035*TEMP+30.875}
+  THETA=0.086  VMAX=2.0E5  LEVEL=3)
Cgs     1    3    2000p
Rd     20    4    8m TC=0.00384
Dds     4    3    DDS
.MODEL     DDS    D(BV={20*{0.00048*TEMP+0.988}}   M=0.35  CJO=2000p   VJ=0.8)
Dbody   20   3    DBODY
.MODEL   DBODY    D(IS=1E-12   N=1   RS=12.7m   TT=25n)
Ra      4    2    10m TC=0.00384
Rs      3    5    8m
Ls      5    30   0.9n
M2      1    8    6    6   INTER
E2      8    6    4    1   2
.MODEL   INTER    PMOS(VTO=0  KP=10   LEVEL=1)
Cgdmax  7    4    3300p
Rcgd    7    4    10meg
Dgd     4    6    DGD
Rdgd    4    6    10meg
.MODEL     DGD    D(M=0.55   CJO=2300p   VJ=0.120)
M3      7    9    1    1   INTER
E3      9    1    4    1   -2
.ENDS 

* NDS8434 ELECTRICAL MODEL  (SO-8 Single P-Ch DMOS)
* ------------------------
.SUBCKT  NDS8434/FAI  20  10  30
Rg     10    1    3
M1      2    1    3    3    DMOS    L=1u   W=1u
.MODEL DMOS PMOS (VTO={-0.9*{-0.00336*TEMP+1.084}}  KP={-0.04*TEMP+48}
+  THETA=0.086  VMAX=2.0E5  LEVEL=3)
Cgs     1    3    3100p
Rd     20    4    12m TC=0.00416
Dds     4    3    DDS
.MODEL     DDS    D(BV={20*{0.000624*TEMP+0.9844}}   M=0.35  CJO=2600p   VJ=0.8)
Dbody   20   3    DBODY
.MODEL   DBODY    D(IS=1E-12   N=1   RS=12.7m   TT=25n)
Ra      4    2    12m TC=0.00416
Rs      3    5    8m
Ls      5    30   0.9n
M2      1    8    6    6   INTER
E2      8    6    4    1   2
.MODEL   INTER    PMOS(VTO=0  KP=10   LEVEL=1)
Cgdmax  7    4    5100p
Rcgd    7    4    10meg
Dgd     4    6    DGD
Rdgd    4    6    10meg
.MODEL     DGD    D(M=0.55   CJO=3800p   VJ=0.120)
M3      7    9    1    1   INTER
E3      9    1    4    1   -2
.ENDS 

*(SO-8 Complemenatry Half Bridge DMOS)
* NDS8852H ELECTRICAL MODEL (P-CHANNEL)
* ------------------------
.SUBCKT  NDS8852HP/FAI  20  10  30
Rg     10    1    3
M1      2    1    3    3    DMOS    L=1u   W=1u
.MODEL  DMOS PMOS (VTO={-1.6*{-0.00216*TEMP+1.054}} KP={-0.006*TEMP+4.65}
+ THETA=0.086 VMAX=5E5 TOX=4.25E-8 LEVEL=3)        
Cgs     1    3    350p
Rd     20    4    20m TC=0.0036
Dds     4    3    DDS 
.MODEL     DDS    D(BV={30*{0.00064*TEMP+0.984}}   M=0.3  CJO=300p   VJ=0.9)
Dbody   20   3    DBODY
.MODEL   DBODY    D(IS=1.4E-13   N=1   RS=40m   TT=29n)
Ra      4    2    25m TC=0.0036
Rs      3    5    1m
Ls      5    30   0.9n
M2      1    8    6    6   INTER
E2      8    6    4    1   2
.MODEL  INTER     PMOS(VTO=0  KP=10   LEVEL=1)
Cgdmax  7    4    590p
Rcgd    7    4    20meg
Dgd     4    6    DGD
Rdgd    4    6    10meg
.MODEL     DGD    D(M=0.5   CJO=590p   VJ=0.12)
M3      7    9    1    1   INTER
E3      9    1    4    1   -2
.ENDS 

*(SO-8 Complementary Half Bridge DMOS)
* NDS8858H P-Ch ELECTRICAL MODEL  
* ---------------------------
.SUBCKT  NDS8858HP/FAI   20  10  30
Rg     10    1    3
M1      2    1    3    3    DMOS    L=1u   W=1u
.MODEL  DMOS PMOS (VTO={-1.6*{-0.00248*TEMP+1.062}}  KP={-0.012*TEMP+8.7} 
+ THETA=0.086  VMAX=5E5 TOX=4.25E-8 LEVEL=3)        
Cgs     1    3    500p
Rd     20    4    8m TC=0.004
Dds     4    3    DDS 
.MODEL     DDS    D(BV={30*{0.00064*TEMP+0.984}}   M=0.25  CJO=310p   VJ=0.51)
Dbody   20   3    DBODY
.MODEL   DBODY    D(IS=1.4E-13   N=1   RS=90m   TT=29n)
Ra      4    2    8m TC=0.004
Rs      3    5    2m
Ls      5    30   0.9n
M2      1    8    6    6   INTER
E2      8    6    4    1   2
.MODEL  INTER     PMOS(VTO=0  KP=10   LEVEL=1)
Cgdmax  7    4    1150p
Rcgd    7    4    10meg
Dgd     4    6    DGD
Rdgd    4    6    10meg
.MODEL     DGD    D(M=0.31   CJO=1150p   VJ=0.18)
M3      7    9    1    1   INTER
E3      9    1    4    1   -2
.ENDS 

* NDS8435 ELECTRICAL MODEL  (SO-8 Single P-Ch DMOS)
* ------------------------
.SUBCKT  NDS8435/FAI  20  10  30
Rg     10    1    3
M1      2    1    3    3    DMOS    L=1u   W=1u
.MODEL DMOS PMOS (VTO={-2.1*{-0.0024*TEMP+1.06}}  KP={-0.02*TEMP+20}
+  THETA=0.086  VMAX=2.0E5  LEVEL=3)
Cgs     1    3    800p
Rd     20    4    8m TC=0.0044
Dds     4    3    DDS
.MODEL     DDS    D(BV={30*{0.00056*TEMP+0.986}}   M=0.35  CJO=1000p   VJ=0.8)
Dbody   20   3    DBODY
.MODEL   DBODY    D(IS=1E-12   N=1   RS=12.7m   TT=25n)
Ra      4    2    5m TC=0.0044
Rs      3    5    8m
Ls      5    30   0.9n
M2      1    8    6    6   INTER
E2      8    6    4    1   2
.MODEL   INTER    PMOS(VTO=0  KP=10   LEVEL=1)
Cgdmax  7    4    3300p
Rcgd    7    4    10meg
Dgd     4    6    DGD
Rdgd    4    6    10meg
.MODEL     DGD    D(M=0.55   CJO=3300p   VJ=0.120)
M3      7    9    1    1   INTER
E3      9    1    4    1   -2
.ENDS 

.SUBCKT  NDS8928P/FAI  20  10  30
Rg     10    1    3
M1      2    1    3    3    DMOS    L=1u   W=1u
.MODEL DMOS PMOS (VTO={-0.9*{-0.00336*TEMP+1.084}}  KP={-0.04*TEMP+48}
+  THETA=0.086  VMAX=2.0E5  LEVEL=3)
Cgs     1    3    3100p
Rd     20    4    12m TC=0.00416
Dds     4    3    DDS
.MODEL     DDS    D(BV={20*{0.000624*TEMP+0.9844}}   M=0.35  CJO=2600p   VJ=0.8)
Dbody   20   3    DBODY
.MODEL   DBODY    D(IS=1E-12   N=1   RS=12.7m   TT=25n)
Ra      4    2    12m TC=0.00416
Rs      3    5    8m
Ls      5    30   0.9n
M2      1    8    6    6   INTER
E2      8    6    4    1   2
.MODEL   INTER    PMOS(VTO=0  KP=10   LEVEL=1)
Cgdmax  7    4    5100p
Rcgd    7    4    10meg
Dgd     4    6    DGD
Rdgd    4    6    10meg
.MODEL     DGD    D(M=0.55   CJO=3800p   VJ=0.120)
M3      7    9    1    1   INTER
E3      9    1    4    1   -2
.ENDS 

* NDS8934 ELECTRICAL MODEL  (SO-8 Single P-Ch DMOS)
* ------------------------
.SUBCKT  NDS8934/FAI  20  10  30
Rg     10    1    3
M1      2    1    3    3    DMOS    L=1u   W=1u
.MODEL DMOS PMOS (VTO={-1.05*{-0.00296*TEMP+1.074}}  KP={-0.02*TEMP+19.5}
+  THETA=0.086  VMAX=2.0E5  LEVEL=3)
Cgs     1    3    1400p
Rd     20    4    15m TC=0.00384
Dds     4    3    DDS
.MODEL     DDS    D(BV={20*{0.0006*TEMP+0.985}}   M=0.35  CJO=1200p   VJ=0.8)
Dbody   20   3    DBODY
.MODEL   DBODY    D(IS=1E-12   N=1   RS=12.7m   TT=25n)
Ra      4    2    12m TC=0.00384
Rs      3    5    8m
Ls      5    30   0.9n
M2      1    8    6    6   INTER
E2      8    6    4    1   2
.MODEL   INTER    PMOS(VTO=0  KP=10   LEVEL=1)
Cgdmax  7    4    2500p
Rcgd    7    4    10meg
Dgd     4    6    DGD
Rdgd    4    6    10meg
.MODEL     DGD    D(M=0.55   CJO=1900p   VJ=0.120)
M3      7    9    1    1   INTER
E3      9    1    4    1   -2
.ENDS 

* NDS8947 ELECTRICAL MODEL  (SO-8 Dual P-Ch DMOS)  
* ---------------------------
.SUBCKT  NDS8947/FAI   20  10  30
Rg     10    1    3
M1      2    1    3    3    DMOS    L=1u   W=1u
.MODEL  DMOS PMOS (VTO={-1.6*{-0.00252*TEMP+1.063}}  KP={-0.012*TEMP+8.7} 
+ THETA=0.086 VMAX=5E5 TOX=4.25E-8 LEVEL=3)        
Cgs     1    3    500p
Rd     20    4    8m TC=0.00384
Dds     4    3    DDS 
.MODEL     DDS    D(BV={30*{0.00064*TEMP+0.984}}   M=0.25  CJO=310p   VJ=0.51)
Dbody   20   3    DBODY
.MODEL   DBODY    D(IS=1.4E-13   N=1   RS=90m   TT=29n)
Ra      4    2    8m TC=0.00384
Rs      3    5    2m
Ls      5    30   0.9n
M2      1    8    6    6   INTER
E2      8    6    4    1   2
.MODEL  INTER     PMOS(VTO=0  KP=10   LEVEL=1)
Cgdmax  7    4    1150p
Rcgd    7    4    10meg
Dgd     4    6    DGD
Rdgd    4    6    10meg
.MODEL     DGD    D(M=0.31   CJO=1150p   VJ=0.18)
M3      7    9    1    1   INTER
E3      9    1    4    1   -2
.ENDS 

.SUBCKT  NDS8958P/FAI   20  10  30
Rg     10    1    3
M1      2    1    3    3    DMOS    L=1u   W=1u
.MODEL  DMOS PMOS (VTO={-1.6*{-0.00252*TEMP+1.063}}  KP={-0.012*TEMP+8.7}
+ THETA=0.086 VMAX=5E5 TOX=4.25E-8 LEVEL=3)
Cgs     1    3    500p
Rd     20    4    8m TC=0.00384
Dds     4    3    DDS
.MODEL     DDS    D(BV={30*{0.00064*TEMP+0.984}}   M=0.25  CJO=310p   VJ=0.51)
Dbody   20   3    DBODY
.MODEL   DBODY    D(IS=1.4E-13   N=1   RS=90m   TT=29n)
Ra      4    2    8m TC=0.00384
Rs      3    5    2m
Ls      5    30   0.9n
M2      1    8    6    6   INTER
E2      8    6    4    1   2
.MODEL  INTER     PMOS(VTO=0  KP=10   LEVEL=1)
Cgdmax  7    4    1150p
Rcgd    7    4    10meg
Dgd     4    6    DGD
Rdgd    4    6    10meg
.MODEL     DGD    D(M=0.31   CJO=1150p   VJ=0.18)
M3      7    9    1    1   INTER
E3      9    1    4    1   -2
.ENDS NDS8958P

* NDS9400 ELECTRICAL MODEL (SO-8 Single P-Ch DMOS)
* ------------------------
.SUBCKT  NDS9400/FAI  20  10  30
Rg     10    1    3
M1      2    1    3    3    DMOS    L=1u   W=1u
.MODEL DMOS PMOS (VTO={-1.9*{-0.00216*TEMP+1.054}}   KP={-0.005*TEMP+4.525}
+  THETA=0.086  VMAX=5.0E5  LEVEL=3)        
Cgs     1    3    210p
Rd     20    4    60m TC=0.0036
Dds     4    3    DDS
.MODEL     DDS    D(BV={20*{0.00064*TEMP+0.984}}   M=0.35  CJO=1000p   VJ=1.0)
Dbody   20   3    DBODY
.MODEL   DBODY    D(IS=1E-12   N=1   RS=12.7m   TT=25n)
Ra      4    2    65m TC=0.0036
Rs      3    5    10m
Ls      5    30   0.9n
M2      1    8    6    6   INTER
E2      8    6    4    1   2
.MODEL   INTER    PMOS(VTO=0  KP=10   LEVEL=1)
Cgdmax  7    4    1130p
Rcgd    7    4    10meg
Dgd     4    6    DGD
Rdgd    4    6    10meg
.MODEL     DGD    D(M=0.55   CJO=1130p   VJ=0.120)
M3      7    9    1    1   INTER
E3      9    1    4    1   -2
.ENDS 

* NDS9400A ELECTRICAL MODEL  (SO-8 Single P Ch DMOS)
* ------------------------
.SUBCKT  NDS9400A/FAI  20  10  30
Rg     10    1    3
M1      2    1    3    3    DMOS    L=1u   W=1u
.MODEL  DMOS PMOS (VTO={-1.8*{-0.00216*TEMP+1.054}}  KP={-0.005*TEMP+4.525} 
+ THETA=0.086 VMAX=5E5 TOX=4.25E-8 LEVEL=3)        
Cgs     1    3    400p
Rd     20    4    30m TC=0.0036
Dds     4    3    DDS 
.MODEL     DDS    D(BV={30*{0.00064*TEMP+0.984}}   M=0.3  CJO=300p   VJ=0.9)
Dbody   20   3    DBODY
.MODEL   DBODY    D(IS=1.4E-13   N=1   RS=40m   TT=29n)
Ra      4    2    30m TC=0.0036
Rs      3    5    1m
Ls      5    30   0.9n
M2      1    8    6    6   INTER
E2      8    6    4    1   2
.MODEL  INTER     PMOS(VTO=0  KP=10   LEVEL=1)
Cgdmax  7    4    600p
Rcgd    7    4    20meg
Dgd     4    6    DGD
Rdgd    4    6    10meg
.MODEL     DGD    D(M=0.5   CJO=600p   VJ=0.12)
M3      7    9    1    1   INTER
E3      9    1    4    1   -2
.ENDS 

* NDS9405 ELECTRICAL MODEL (SO-8 Single P-Ch DMOS)
* ------------------------
.SUBCKT  NDS9405/FAI  20  10  30
Rg     10    1    3
M1      2    1    3    3    DMOS    L=1u   W=1u
.MODEL DMOS PMOS (VTO={-1.65*{-0.0018*TEMP+1.045}}  KP={-0.02*TEMP+12}
+ THETA=0.086 VMAX=2.0E5  LEVEL=3)
Cgs     1    3    900p
Rd     20    4    8m TC=0.0032
Dds     4    3    DDS
.MODEL     DDS    D(BV={20*{0.00088*TEMP+0.978}}   M=0.35  CJO=1000p   VJ=1.0)
Dbody   20   3    DBODY
.MODEL   DBODY    D(IS=1E-12   N=1   RS=12.7m   TT=25n)
Ra      4    2    15m TC=0.0032
Rs      3    5    10.5m
Ls      5    30   0.9n
M2      1    8    6    6   INTER
E2      8    6    4    1   2
.MODEL   INTER    PMOS(VTO=0  KP=10   LEVEL=1)
Cgdmax  7    4    2800p
Rcgd    7    4    10meg
Dgd     4    6    DGD
Rdgd    4    6    10meg
.MODEL     DGD    D(M=0.55   CJO=2800p   VJ=0.120)
M3      7    9    1    1   INTER
E3      9    1    4    1   -2
.ENDS 

* NDS9407 ELECTRICAL MODEL  (SO-8 Single P-Ch DMOS)
* ------------------------
.SUBCKT  NDS9407/FAI 20  10  30
Rg     10    1    3
M1      2    1    3    3    DMOS    L=1u   W=1u
.MODEL DMOS PMOS (VTO={-2.65*{-0.00168*TEMP+1.042}}  KP={-0.014*TEMP+11.85}
+  THETA=0.086  VMAX=2.0E5  LEVEL=3)
Cgs     1    3    1300p
Rd     20    4    23m TC=0.0056
Dds     4    3    DDS
.MODEL     DDS    D(BV={60*{0.00088*TEMP+0.978}}   M=0.35  CJO=800p   VJ=0.8)
Dbody   20   3    DBODY
.MODEL   DBODY    D(IS=1E-12   N=1   RS=12.7m   TT=25n)
Ra      4    2    38m TC=0.0056
Rs      3    5    8m
Ls      5    30   0.9n
M2      1    8    6    6   INTER
E2      8    6    4    1   2
.MODEL   INTER    PMOS(VTO=0  KP=10   LEVEL=1)
Cgdmax  7    4    2200p
Rcgd    7    4    10meg
Dgd     4    6    DGD
Rdgd    4    6    10meg
.MODEL     DGD    D(M=0.55   CJO=1800p   VJ=0.120)
M3      7    9    1    1   INTER
E3      9    1    4    1   -2
.ENDS 

* NDS9430 ELECTRICAL MODEL  (SO-8 Single P-Ch DMOS)
* ------------------------
.SUBCKT  NDS9430/FAI  20  10  30
Rg     10    1    3
M1      2    1    3    3    DMOS    L=1u   W=1u
.MODEL DMOS PMOS (VTO={-1.65*{-0.0018*TEMP+1.045}}  KP={-0.02*TEMP+12}
+  THETA=0.086  VMAX=2.0E5  LEVEL=3)
Cgs     1    3    800p
Rd     20    4    8m TC=0.0032
Dds     4    3    DDS
.MODEL     DDS    D(BV={20*{0.00088*TEMP+0.978}}   M=0.35  CJO=1000p   VJ=1.0)
Dbody   20   3    DBODY
.MODEL   DBODY    D(IS=1E-12   N=1   RS=12.7m   TT=25n)
Ra      4    2    8m TC=0.0032
Rs      3    5    11.8m
Ls      5    30   0.9n
M2      1    8    6    6   INTER
E2      8    6    4    1   2
.MODEL   INTER    PMOS(VTO=0  KP=10   LEVEL=1)
Cgdmax  7    4    2600p
Rcgd    7    4    10meg
Dgd     4    6    DGD
Rdgd    4    6    10meg
.MODEL     DGD    D(M=0.55   CJO=2600p   VJ=0.120)
M3      7    9    1    1   INTER
E3      9    1    4    1   -2
.ENDS 

* NDS9435 ELECTRICAL MODEL  (SO-8 Single P-Ch DMOS)
* ------------------------
.SUBCKT  NDS9435/FAI  20  10  30
Rg     10    1    3
M1      2    1    3    3    DMOS    L=1u   W=1u
.MODEL DMOS PMOS (VTO={-2.0*{-0.00252*TEMP+1.063}}  KP={-0.02*TEMP+14.5}
+  THETA=0.086  VMAX=2.0E5  LEVEL=3)        
Cgs     1    3    400p
Rd     20    4    10.67m TC=0.0044
Dds     4    3    DDS
.MODEL     DDS    D(BV={30*{0.00064*TEMP+0.984}}   M=0.35  CJO=1000p   VJ=0.8)
Dbody   20   3    DBODY
.MODEL   DBODY    D(IS=1E-12   N=1   RS=12.7m   TT=25n)
Ra      4    2    22m TC=0.0044
Rs      3    5    11.8m
Ls      5    30   0.9n
M2      1    8    6    6   INTER
E2      8    6    4    1   2
.MODEL   INTER    PMOS(VTO=0  KP=10   LEVEL=1)
Cgdmax  7    4    2600p
Rcgd    7    4    10meg
Dgd     4    6    DGD
Rdgd    4    6    10meg
.MODEL     DGD    D(M=0.55   CJO=5000p   VJ=0.120)
M3      7    9    1    1   INTER
E3      9    1    4    1   -2
.ENDS 

* NDS9933 ELECTRICAL MODEL  (SO-8 Single P-Ch DMOS)
* ------------------------
.SUBCKT  NDS9933/FAI  20  10  30
Rg     10    1    3
M1      2    1    3    3    DMOS    L=1u   W=1u
.MODEL DMOS PMOS (VTO={-1.3*{-0.00224*TEMP+1.056}}  KP={-0.013*TEMP+11.125}
+  THETA=0.086  VMAX=2.0E5  LEVEL=3)
Cgs     1    3    1000p
Rd     20    4    8m TC=0.00336
Dds     4    3    DDS
.MODEL     DDS    D(BV={20*{0.000384*TEMP+0.9904}}   M=0.35  CJO=800p   VJ=0.8)
Dbody   20   3    DBODY
.MODEL   DBODY    D(IS=1E-12   N=1   RS=12.7m   TT=25n)
Ra      4    2    12m TC=0.00336
Rs      3    5    8m
Ls      5    30   0.9n
M2      1    8    6    6   INTER
E2      8    6    4    1   2
.MODEL   INTER    PMOS(VTO=0  KP=10   LEVEL=1)
Cgdmax  7    4    1500p
Rcgd    7    4    10meg
Dgd     4    6    DGD
Rdgd    4    6    10meg
.MODEL     DGD    D(M=0.55   CJO=1000p   VJ=0.120)
M3      7    9    1    1   INTER
E3      9    1    4    1   -2
.ENDS 

*( SO-8 Complementary P & N-Ch DMOS)
* NDS9942 ELECTRICAL MODEL
* ------------------------
.SUBCKT  NDS9942P/FAI  20  10  30
Rg     10    1    3
M1      2    1    3    3    DMOS    L=1u   W=1u
.MODEL DMOS PMOS (VTO={-1.9*{-0.0016*TEMP+1.04}}   KP={-0.009*TEMP+5.425}
+  THETA=0.086  VMAX=5.0E5  LEVEL=3)        
Cgs     1    3    210p
Rd     20    4    60m TC=0.00384
Dds     4    3    DDS
.MODEL     DDS    D(BV={20*{0.00072*TEMP+0.982}}   M=0.35  CJO=1000p   VJ=1.0)
Dbody   20   3    DBODY
.MODEL   DBODY    D(IS=1E-12   N=1   RS=12.7m   TT=25n)
Ra      4    2    65m TC=0.00384
Rs      3    5    10m
Ls      5    30   0.9n
M2      1    8    6    6   INTER
E2      8    6    4    1   2
.MODEL   INTER    PMOS(VTO=0  KP=10   LEVEL=1)
Cgdmax  7    4    1130p
Rcgd    7    4    10meg
Dgd     4    6    DGD
Rdgd    4    6    10meg
.MODEL     DGD    D(M=0.55   CJO=1130p   VJ=0.120)
M3      7    9    1    1   INTER
E3      9    1    4    1   -2
.ENDS 

.SUBCKT  NDS9943P/FAI  20  10  30
Rg     10    1    3
M1      2    1    3    3    DMOS    L=1u   W=1u

.MODEL DMOS PMOS (VTO={-1.9*{-0.0016*TEMP+1.04}}   KP={-0.009*TEMP+5.425}
+  THETA=0.086  VMAX=5.0E5  LEVEL=3)        
Cgs     1    3    210p
Rd     20    4    60m TC=0.00384
Dds     4    3    DDS
.MODEL     DDS    D(BV={20*{0.00072*TEMP+0.982}}   M=0.35  CJO=1000p   VJ=1.0)
Dbody   20   3    DBODY
.MODEL   DBODY    D(IS=1E-12   N=1   RS=12.7m   TT=25n)
Ra      4    2    65m TC=0.00384
Rs      3    5    10m
Ls      5    30   0.9n
M2      1    8    6    6   INTER
E2      8    6    4    1   2
.MODEL   INTER    PMOS(VTO=0  KP=10   LEVEL=1)
Cgdmax  7    4    1130p
Rcgd    7    4    10meg
Dgd     4    6    DGD
Rdgd    4    6    10meg
.MODEL     DGD    D(M=0.55   CJO=1130p   VJ=0.120)
M3      7    9    1    1   INTER
E3      9    1    4    1   -2
.ENDS 

* NDS9947 ELECTRICAL MODEL  (SO-8 Dual P-Ch DMOS)
* ------------------------
.SUBCKT  NDS9947/FAI  20  10  30
Rg     10    1    3
M1      2    1    3    3    DMOS    L=1u   W=1u
.MODEL  DMOS PMOS (VTO={-2.2*{-0.00136*TEMP+1.034}}  KP={-0.01*TEMP+6.55}
+  THETA=0.086 VMAX=5E5 TOX=4.25E-8 LEVEL=3)        
Cgs     1    3    200p
Rd     20    4    15m TC=0.00336
Dds     4    3    DDS 
.MODEL     DDS    D(BV={20*{0.00064*TEMP+0.984}}   M=0.25  CJO=300p   VJ=0.51)
Dbody   20   3    DBODY
.MODEL   DBODY    D(IS=1.4E-13   N=1   RS=90m   TT=29n)
Ra      4    2    10m TC=0.00336
Rs      3    5    2m
Ls      5    30   0.9n
M2      1    8    6    6   INTER
E2      8    6    4    1   2
.MODEL  INTER     PMOS(VTO=0  KP=10   LEVEL=1)
Cgdmax  7    4    1230p
Rcgd    7    4    10meg
Dgd     4    6    DGD
Rdgd    4    6    10meg
.MODEL     DGD    D(M=0.31   CJO=1230p   VJ=0.18)
M3      7    9    1    1   INTER
E3      9    1    4    1   -2
.ENDS 

* NDS9948 ELECTRICAL MODEL  (SO-8 Dual P Ch DMOS)
* ------------------------
.SUBCKT  NDS9948/FAI  20  10  30
Rg     10    1    3
M1      2    1    3    3    DMOS    L=1u   W=1u
.MODEL  DMOS PMOS (VTO={-2.8*{-0.00156*TEMP+1.039}}  KP={-0.006*TEMP+4.45}
+  THETA=0.086 VMAX=5E5 LEVEL=3)
Cgs     1    3    400p
Rd     20    4    60m TC=0.004
Dds     4    3    DDS
.MODEL     DDS    D(BV={60*{0.00092*TEMP+0.977}}   M=0.3  CJO=300p   VJ=0.9)
Dbody   20   3    DBODY
.MODEL   DBODY    D(IS=1.4E-14   N=1   RS=40m   TT=29n)
Ra      4    2    80m TC=0.004
Rs      3    5    1m
Ls      5    30   0.9n
M2      1    8    6    6   INTER
E2      8    6    4    1   2
.MODEL  INTER     PMOS(VTO=0  KP=10   LEVEL=1)
Cgdmax  7    4    950p
Rcgd    7    4    20meg
Dgd     4    6    DGD
Rdgd    4    6    10meg
.MODEL     DGD    D(M=0.5   CJO=950p   VJ=0.12)
M3      7    9    1    1   INTER
E3      9    1    4    1   -2
.ENDS 

*( SO-8 Complementary P & N-Ch DMOS)
* NDS9952 ELECTRICAL MODEL
* ------------------------
.SUBCKT  NDS9952P/FAI  20  10  30
Rg     10    1    3