* MODELLING FOR stgd7nb60k
 
.SUBCKT stgd7nb60k 1 2 3
LG 10 2 7.5E-09
LE 3 15 7.5E-09
LC 13 1 4.5E-09
RG 10 5 3.3
RC 14 13 0.201E-02
RE 15 12 0.204E-02
RF 7 10 1MEG
RX 4 14 782.313
CGE 12 5 0.621E-09
CCG 17 4 0.654E-09
CK 16 4  0.231E-10
DCG 12 11 DG
Q1 12 11 14 Q
M1 11 5 12 12 MOS
E1 16 5 8 7 1
E2 17 5 6 7 1
G1 7 9 11 10 1u
D1  8 9 DI
D2  9 6 DI
D3 16 4 DO
R1 7 8 1MEG
R2 7 6 1MEG

 
.MODEL MOS NMOS
+ LEVEL = 3
+ VTO   = 6.071
+ KP    = 2.049
+ THETA = 0.182
 
.MODEL Q PNP
+ IS    = 0.282E-17
+ VAF   = 161.251
+ BF    = 0.492E-01
+ NE    = 1.943
+ ISE   = 0.452E-14
+ IKF   = 1.268
+ BR    = 0.398E-01
+ NC    = 2.933
+ NK    = 0.679
+ TF    = 1E-06
+ ITF   = 1
+ VTF   = 10
+ XTF   = 0.1
 
.MODEL DI D
+ IS    = 0.01E-12
+ RS    = 0
 
.MODEL DO D
+ IS    = 0.01E-12
+ CJO   = 50E-12
+ VJ    = 0.75
+ M     = 0.35
 
.MODEL DE D
+ IS    = 0.01E-12
+ BV    = 14.3
+ N     = 2
 
.MODEL DG D
+ IS    = 0.01E-12
+ BV    = 640
+ VJ    = 0.75
+ M     = 0.35
.ENDS IK64
* END OF MODELLING
* MODELLING FOR STGB10NB37LZ
 
.SUBCKT STGB10NB37LZ 1 2 3
LG 10 2 7.5E-09
LE 3 15 7.5E-09
LC 13 1 4.5E-09
RG 10 5 8
RC 14 13 0.922E-02
RE 15 12 0.194E-01
RGE 12 10 15K
RF 7 10 1MEG
RX 4 14 855.864
CGE 12 5 0.781E-09
CCG 17 4 0.363E-08
CK 16 4  0.219E-10
DGE 12 5 DE
DCG 12 11 DG
Q1 12 11 14 Q
M1 11 5 12 12 MOS
E1 16 5 8 7 1
E2 17 5 6 7 1
G1 7 9 11 10 1u
D1  8 9 DI
D2  9 6 DI
D3 16 4 DO
R1 7 8 1MEG
R2 7 6 1MEG

 
.MODEL MOS NMOS
+ LEVEL = 3
+ VTO   = 1.774
+ KP    = 30.598
+ THETA = 0.998E-01
 
.MODEL Q PNP
+ IS    = 0.163E-13
+ VAF   = 980.930
+ BF    = 2.853
+ NE    = 1.811
+ ISE   = 0.124E-11
+ IKF   = 28.763
+ BR    = 0.964E-01
+ NC    = 2.824
+ NK    = 0.658
+ TF    = 1E-06
+ ITF   = 0.1
+ VTF   = 1
+ XTF   = 0.1
 
.MODEL DI D
+ IS    = 0.01E-12
+ RS    = 0
 
.MODEL DO D
+ IS    = 0.01E-12
+ CJO   = 50E-12
+ VJ    = 0.75
+ M     = 0.35
 
.MODEL DE D
+ IS    = 0.01E-12
+ BV    = 14.3
+ N     = 2
 
.MODEL DG D
+ IS    = 0.01E-12
+ BV    = 400
+ VJ    = 0.75
+ M     = 0.35
.ENDS STGB10NB37LZ 
* END OF MODELLING

* MODELLING FOR STGB10NB60S
 
.SUBCKT STGB10NB60S 1 2 3
LG 10 2 7.5E-09
LE 3 15 7.5E-09
LC 13 1 4.5E-09
RG 10 5 31
RC 14 13 0.158E-02
RE 15 12 0.399E-02
RF 7 10 1MEG
RX 4 14 925.724
CGE 12 5 0.649E-09
CCG 17 4 0.105E-08
CK 16 4  0.321E-11
DCG 12 11 DG
Q1 12 11 14 Q
M1 11 5 12 12 MOS
E1 16 5 8 7 1
E2 17 5 6 7 1
G1 7 9 11 10 1u
D1  8 9 DI
D2  9 6 DI
D3 16 4 DO
R1 7 8 1MEG
R2 7 6 1MEG

 
.MODEL MOS NMOS
+ LEVEL = 3
+ VTO   = 3.418
+ KP    = 2.512
+ THETA = 0.986E-01
 
.MODEL Q PNP
+ IS    = 0.245E-13
+ VAF   = 894.872
+ BF    = 0.864
+ NE    = 1.974
+ ISE   = 0.141E-15
+ IKF   = 8.034
+ BR    = 0.389E-02
+ NC    = 2.714
+ NK    = 0.887
+ TF    = 1E-06
+ ITF   = 1
+ VTF   = 10
+ XTF   = 0.1
 
.MODEL DI D
+ IS    = 0.01E-12
+ RS    = 0
 
.MODEL DO D
+ IS    = 0.01E-12
+ CJO   = 50E-12
+ VJ    = 0.75
+ M     = 0.35
 
.MODEL DG D
+ IS    = 0.01E-12
+ BV    = 740
+ VJ    = 0.75
+ M     = 0.35
.ENDS STGB10NB60S 
* END OF MODELLING
* MODELLING FOR STGB20NB32LZ
 
.SUBCKT STGB20NB32LZ 1 2 3
LG 10 2 7.5E-09
LE 3 15 7.5E-09
LC 13 1 4.5E-09
RG 10 5 8
RC 14 13 0.543E-02
RE 15 12 0.771E-02
RGE 12 10 15K
RF 7 10 1MEG
RX 4 14 788.722
CGE 12 5 0.192E-08
CCG 17 4 0.548E-08
CK 16 4  0.415E-10
DGE 12 5 DE
DCG 12 11 DG
Q1 12 11 14 Q
M1 11 5 12 12 MOS
E1 16 5 8 7 1
E2 17 5 6 7 1
G1 7 9 11 10 1u
D1  8 9 DI
D2  9 6 DI
D3 16 4 DO
R1 7 8 1MEG
R2 7 6 1MEG

 
.MODEL MOS NMOS
+ LEVEL = 3
+ VTO   = 1.587
+ KP    = 30.429
+ THETA = 0.997E-01
 
.MODEL Q PNP
+ IS    = 0.893E-13
+ VAF   = 524.532
+ BF    = 1.982
+ NE    = 1.598
+ ISE   = 0.816E-12
+ IKF   = 4.722
+ BR    = 0.306E-01
+ NC    = 2.704
+ NK    = 0.329
+ TF    = 0.933E-06
+ ITF   = 1.201
+ VTF   = 20.164
+ XTF   = 1.523
 
.MODEL DI D
+ IS    = 0.01E-12
+ RS    = 0
 
.MODEL DO D
+ IS    = 0.01E-12
+ CJO   = 50E-12
+ VJ    = 0.75
+ M     = 0.35
 
.MODEL DE D
+ IS    = 0.01E-12
+ BV    = 14.3
+ N     = 2
 
.MODEL DG D
+ IS    = 0.01E-12
+ BV    = 380
+ VJ    = 0.75
+ M     = 0.35
.ENDS STGB20NB32LZ 
* END OF MODELLING

* MODELLING FOR STGB7NB40LZ
 
.SUBCKT STGB7NB40LZ 1 2 3
LG 10 2 7.5E-09
LE 3 15 7.5E-09
LC 13 1 4.5E-09
RG 10 5 32
RC 14 13 0.609E-02
RE 15 12 0.328E-01
RGE 12 10 18.5K
RF 7 10 1MEG
RX 4 14 789.559
CGE 12 5 0.708E-09
CCG 17 4 0.191E-08
CK 16 4  0.175E-10
DGE 12 5 DE
DCG 12 11 DG
Q1 12 11 14 Q
M1 11 5 12 12 MOS
E1 16 5 8 7 1
E2 17 5 6 7 1
G1 7 9 11 10 1u
D1  8 9 DI
D2  9 6 DI
D3 16 4 DO
R1 7 8 1MEG
R2 7 6 1MEG

 
.MODEL MOS NMOS
+ LEVEL = 3
+ VTO   = 1.778
+ KP    = 35.459
+ THETA = 0.993E-01
 
.MODEL Q PNP
+ IS    = 0.329E-13
+ VAF   = 743.187
+ BF    = 2.887
+ NE    = 1.819
+ ISE   = 0.559E-12
+ IKF   = 17.716
+ BR    = 0.965E-01
+ NC    = 1.114
+ NK    = 0.677
+ TF    = 1E-06
+ ITF   = 0.1
+ VTF   = 1
+ XTF   = 0.1
 
.MODEL DI D
+ IS    = 0.01E-12
+ RS    = 0
 
.MODEL DO D
+ IS    = 0.01E-12
+ CJO   = 50E-12
+ VJ    = 0.75
+ M     = 0.35
 
.MODEL DE D
+ IS    = 0.01E-12
+ BV    = 14.3
+ N     = 2
 
.MODEL DG D
+ IS    = 0.01E-12
+ BV    = 400
+ VJ    = 0.75
+ M     = 0.35
.ENDS STGB7NB40LZ 
* END OF MODELLING

* MODELLING FOR STGD7NB60S
 
.SUBCKT STGD7NB60S 1 2 3
LG 10 2 7.5E-09
LE 3 15 7.5E-09
LC 13 1 4.5E-09
RG 10 5 31
RC 14 13 0.158E-02
RE 15 12 0.399E-02
RF 7 10 1MEG
RX 4 14 925.724
CGE 12 5 0.649E-09
CCG 17 4 0.105E-08
CK 16 4  0.321E-11
DCG 12 11 DG
Q1 12 11 14 Q
M1 11 5 12 12 MOS
E1 16 5 8 7 1
E2 17 5 6 7 1
G1 7 9 11 10 1u
D1  8 9 DI
D2  9 6 DI
D3 16 4 DO
R1 7 8 1MEG
R2 7 6 1MEG

 
.MODEL MOS NMOS
+ LEVEL = 3
+ VTO   = 3.418
+ KP    = 2.512
+ THETA = 0.986E-01
 
.MODEL Q PNP
+ IS    = 0.245E-13
+ VAF   = 894.872
+ BF    = 0.864
+ NE    = 1.974
+ ISE   = 0.141E-15
+ IKF   = 8.034
+ BR    = 0.389E-02
+ NC    = 2.714
+ NK    = 0.887
+ TF    = 1E-06
+ ITF   = 1
+ VTF   = 10
+ XTF   = 0.1
 
.MODEL DI D
+ IS    = 0.01E-12
+ RS    = 0
 
.MODEL DO D
+ IS    = 0.01E-12
+ CJO   = 50E-12
+ VJ    = 0.75
+ M     = 0.35
 
.MODEL DG D
+ IS    = 0.01E-12
+ BV    = 740
+ VJ    = 0.75
+ M     = 0.35
.ENDS STGD7NB60S
* END OF MODELLING
* MODELLING FOR STGP10NB60S
 
.SUBCKT STGP10NB60S 1 2 3
LG 10 2 7.5E-09
LE 3 15 7.5E-09
LC 13 1 4.5E-09
RG 10 5 31
RC 14 13 0.158E-02
RE 15 12 0.399E-02
RF 7 10 1MEG
RX 4 14 925.724
CGE 12 5 0.649E-09
CCG 17 4 0.105E-08
CK 16 4  0.321E-11
DCG 12 11 DG
Q1 12 11 14 Q
M1 11 5 12 12 MOS
E1 16 5 8 7 1
E2 17 5 6 7 1
G1 7 9 11 10 1u
D1  8 9 DI
D2  9 6 DI
D3 16 4 DO
R1 7 8 1MEG
R2 7 6 1MEG

 
.MODEL MOS NMOS
+ LEVEL = 3
+ VTO   = 3.418
+ KP    = 2.512
+ THETA = 0.986E-01
 
.MODEL Q PNP
+ IS    = 0.245E-13
+ VAF   = 894.872
+ BF    = 0.864
+ NE    = 1.974
+ ISE   = 0.141E-15
+ IKF   = 8.034
+ BR    = 0.389E-02
+ NC    = 2.714
+ NK    = 0.887
+ TF    = 1E-06
+ ITF   = 1
+ VTF   = 10
+ XTF   = 0.1
 
.MODEL DI D
+ IS    = 0.01E-12
+ RS    = 0
 
.MODEL DO D
+ IS    = 0.01E-12
+ CJO   = 50E-12
+ VJ    = 0.75
+ M     = 0.35
 
.MODEL DG D
+ IS    = 0.01E-12
+ BV    = 740
+ VJ    = 0.75
+ M     = 0.35
.ENDS STGP10NB60S 
* END OF MODELLING
* MODELLING FOR STGP10NB60SFP
 
.SUBCKT STGP10NB60SFP 1 2 3
LG 10 2 7.5E-09
LE 3 15 7.5E-09
LC 13 1 4.5E-09
RG 10 5 31
RC 14 13 0.158E-02
RE 15 12 0.399E-02
RF 7 10 1MEG
RX 4 14 925.724
CGE 12 5 0.649E-09
CCG 17 4 0.105E-08
CK 16 4  0.321E-11
DCG 12 11 DG
Q1 12 11 14 Q
M1 11 5 12 12 MOS
E1 16 5 8 7 1
E2 17 5 6 7 1
G1 7 9 11 10 1u
D1  8 9 DI
D2  9 6 DI
D3 16 4 DO
R1 7 8 1MEG
R2 7 6 1MEG

 
.MODEL MOS NMOS
+ LEVEL = 3
+ VTO   = 3.418
+ KP    = 2.512
+ THETA = 0.986E-01
 
.MODEL Q PNP
+ IS    = 0.245E-13
+ VAF   = 894.872
+ BF    = 0.864
+ NE    = 1.974
+ ISE   = 0.141E-15
+ IKF   = 8.034
+ BR    = 0.389E-02
+ NC    = 2.714
+ NK    = 0.887
+ TF    = 1E-06
+ ITF   = 1
+ VTF   = 10
+ XTF   = 0.1
 
.MODEL DI D
+ IS    = 0.01E-12
+ RS    = 0
 
.MODEL DO D
+ IS    = 0.01E-12
+ CJO   = 50E-12
+ VJ    = 0.75
+ M     = 0.35
 
.MODEL DG D
+ IS    = 0.01E-12
+ BV    = 740
+ VJ    = 0.75
+ M     = 0.35
.ENDS STGP10NB60SFP
* END OF MODELLING
*
*       _/_/_/_/_/_/                          
*     _/       _/                             
*      _/_/   _/          STMicroelectronics  
*         _/ _/                               
*   _/_/_/  _/                                
*   www.st.com                                
*                                             
* 
*****************************************************
*     Model Generated by STMicroelectronics         *
*             All Rights Reserved       	          *
*      Commercial Use or Resale Restricted          *
*****************************************************
* CREATION DATES: 10-12-2008                        *
*                                                   *
* POWER MOSFET Model (level 3)                      *
*                                                   *
* EXTERNAL PINS DESCRIPTION:                        *
*                                                   *
* PIN 1 -> Drain                                    *
* PIN 2 -> Gate                                     *
* PIN 3 -> Source                                   *
*                                                   *
*                    ****C****                      *
*            **********************                 *
*     ***************************************       *
*  PARAMETER MODELS EXTRACTED FROM MEASURED DATA    *
*              <<<<<<<<<<<>>>>>>>>>>>               *
*     ***************************************       *
*   THIS MODEL CAN BE USED AT TEMPERATURE: 25 °C    *
*                                                   *
*****************************************************

* MODELLING FOR STFW3N150
 
.SUBCKT STFW3N150 1 2 3
LG 2 4  4.5E-09
LS 12 3 4.5E-09
LD 6 1  2.5E-09
RG 4 5  4.008
RS 9 12 0.139E-02
RD 7 6  5.795
RJ 8 7  0.361E-01
CGS 5 9   0.699E-09
CGD 7 10  0.116E-08
CK  11 7  0.699E-11
DGD 11 7 DGD
DBS 12 6 DBS
DBD  9 7 DBD
MOS  13 5 9 9 MOS L=1u W=1u
E1  10 5 101 0 1
E2  11 5 102 0 1
E3  8 13 POLY(2) 6 8 6 12 0 0 0 0  0.294E-02
G1  0 100 7 5 1u
D1  100 101  DID
D2  102 100  DID
R1  101 0  1MEG
R2  102 0  1MEG
 
.MODEL MOS NMOS
+ LEVEL = 3
+ VTO   = 4.739
+ PHI   = 1.091
+ IS    = 0.1E-12
+ JS    = 0
+ THETA = 0.104E-03
+ KP    = 2.697
+ ETA   = 0.998E-04
 
.MODEL DGD D
+ IS    = 0.1E-12
+ CJO   = 0.216E-10
+ VJ    = 0.819
+ M     = 0.339
.MODEL DBD D
+ IS    = 0.1E-12
+ CJO   = 0.582E-09
+ VJ    = 0.785
+ M     = 0.364
.MODEL DBS D
+ IS    = 0.1E-12
+ BV    = 1530
+ N     = 1
+ TT    = 0.534E-06
+ RS    = 0.736E-02
.MODEL DID D
+ IS    = 0.01E-12
+ RS    = 0
+ BV    = 1540
 
.ENDS STFW3N150
 
* END OF MODELLING

* MODELLING FOR STGB7NC60HD
 
.SUBCKT STGB7NC60HD 1 2 3
LG 10 2 7.5E-09
LE 3 15 7.5E-09
LC 13 1 4.5E-09
RG 10 5 2.301
RC 14 13 0.151E-03
RE 15 12 0.349E-02
RF 7 10 1MEG
RX 4 14 800.239
CGE 12 5 0.744E-09
CCG 17 4 0.934E-09
CK 16 4  0.188E-10
DCG 12 11 DG
Q1 12 11 14 Q
M1 11 5 12 12 MOS
E1 16 5 8 7 1
E2 17 5 6 7 1
G1 7 9 11 10 1u
D1  8 9 DI
D2  9 6 DI
D3 16 4 DO
R1 7 8 1MEG
R2 7 6 1MEG
.ENDS STGB7NC60HD
 
.MODEL MOS NMOS
+ LEVEL = 3
+ VTO   = 6.955
+ KP    = 6.798
+ THETA = 0.264
 
.MODEL Q PNP
+ IS    = 0.105E-15
+ VAF   = 166.764
+ BF    = 0.258
+ NE    = 1.766
+ ISE   = 0.754E-15
+ IKF   = 0.154E-01
+ BR    = 0.447E-02
+ NC    = 1.204
+ NK    = 0.864
+ TF    = 1E-06
+ ITF   = 1
+ VTF   = 10
+ XTF   = 0.1
 
.MODEL DI D
+ IS    = 0.01E-12
+ RS    = 0
 
.MODEL DO D
+ IS    = 0.01E-12
+ CJO   = 50E-12
+ VJ    = 0.75
+ M     = 0.35
 
.MODEL DG D
+ IS    = 0.01E-12
+ BV    = 665
+ VJ    = 0.75
+ M     = 0.35
.ENDS STGB7NC60HD
* END OF MODELLING
*
*       _/_/_/_/_/_/                          
*     _/       _/                             
*      _/_/   _/          STMicroelectronics  
*         _/ _/                               
*   _/_/_/  _/                                
*   www.st.com                                
*                                             
* 
*****************************************************
*     Model Generated by STMicroelectronics         *
*             All Rights Reserved         	    *
*      Commercial Use or Resale Restricted          *
*****************************************************
* CREATION DATES: 30-11-2006                        *
*                                                   *
* POWER IGBT Model (Rev 1.0)                        *
*                                                   *
* EXTERNAL PINS DESCRIPTION:                        *
*                                                   *
* PIN 1 -> Collector                                *
* PIN 2 -> Gate                                     *
* PIN 3 -> Emitter                                  *
*                                                   *
*                    ****C****                      *
*            **********************                 *
*     ***************************************       *
*  PARAMETER MODELS EXTRACTED FROM MEASURED DATA    *
*              <<<<<<<<<<<>>>>>>>>>>>               *
*     ***************************************       *
*   THIS MODEL CAN BE USED AT TEMPERATURE: 25 °C    *
*                                                   *
*****************************************************
* MODELLING FOR STGF14NC60KD
 
.SUBCKT STGF14NC60KD 1 2 3
LG 10 2 7.5E-09
LE 3 15 7.5E-09
LC 13 1 4.5E-09
RG 10 5 4.3
RC 14 13 0.407E-04
RE 15 12 0.550E-02
RF 7 10 1MEG
RX 4 14 795.072
CGE 12 5 0.7297767E-09
CCG 17 4 0.100053E-08
CK 16 4  0.166839E-10
DCE 12 14 DE
DCG 12 11 DG
Q1 12 11 14 Q
M1 11 5 12 12 MOS
E1 16 5 8 7 1
E2 17 5 6 7 1
G1 7 9 11 10 1u
D1  8 9 DI
D2  9 6 DI
D3 16 4 DO
R1 7 8 1MEG
R2 7 6 1MEG

.MODEL MOS NMOS
+ LEVEL = 3
+ VTO   = 6.541
+ KP    = 3.777
+ THETA = 0.333
 
.MODEL Q PNP
+ IS    = 0.103829E-19
+ VAF   = 9.04358
+ BF    = 2.63619
+ NE    = 1.51777
+ ISE   = 0.962995E-12
+ IKF   = 13.8690
+ BR    = 0.202309
+ NC    = 2.92437
+ NK    = 0.301663
+ RB    = 0.102926E-04
+ TF    = 0.100323E-06
+ ITF   = 1.00087
+ VTF   = 9.98660
+ XTF   = 120.100953
 
.MODEL DI D
+ IS    = 0.01E-12
+ CJO   = 0.220140E-14
+ RS    = 0.05
 
.MODEL DO D
+ IS    = 0.01E-12
+ CJO   = 0.373680E-11
+ VJ    = 0.75
+ M     = 0.35
 
 .MODEL DE D
+ IS    = 0.01E-12
+ CJO   = 0.584117E-13
+ BV    = 665
+ VJ    = 0.75
+ M     = 0.35
 
.MODEL DG D
+ IS    = 0.01E-12
+ BV    = 665
+ VJ    = 0.75
+ M     = 0.35
 
.ENDS STGF14NC60KD
* END OF MODELLING

*
*       _/_/_/_/_/_/                          
*     _/       _/                             
*      _/_/   _/          STMicroelectronics  
*         _/ _/                               
*   _/_/_/  _/                                
*   www.st.com                                
*                                             
* 
*****************************************************
*     Model Generated by STMicroelectronics         *
*             All Rights Reserved         	    *
*      Commercial Use or Resale Restricted          *
*****************************************************
* CREATION DATES: 03-08-2006                        *
*                                                   *
* POWER IGBT Model (Rev 1.0)                        *
*                                                   *
* EXTERNAL PINS DESCRIPTION:                        *
*                                                   *
* PIN 1 -> Collector                                *
* PIN 2 -> Gate                                     *
* PIN 3 -> Emitter                                  *
*                                                   *
*                    ****C****                      *
*            **********************                 *
*     ***************************************       *
*  PARAMETER MODELS EXTRACTED FROM MEASURED DATA    *
*              <<<<<<<<<<<>>>>>>>>>>>               *
*     ***************************************       *
*   THIS MODEL CAN BE USED AT TEMPERATURE: 25 °C    *
*                                                   *
*****************************************************
* MODELLING FOR STGF6NC60HD
 
.SUBCKT STGF6NC60HD 1 2 3
LG 10 2 7.5E-09
LE 3 15 7.5E-09
LC 13 1 4.5E-09
RG 10 5 15.001
RC 14 13 0.101E-02
RE 15 12 0.102E-02
RF 7 10 1MEG
RX 4 14 1.194
CGE 12 5 0.314E-09
CCG 17 4 0.316E-09
CK 16 4  0.907E-11
DCE 12 14 DE
DCG 12 11 DG
Q1 12 11 14 Q
M1 11 5 12 12 MOS
E1 16 5 8 7 1
E2 17 5 6 7 1
G1 7 9 11 10 1u
D1  8 9 DI
D2  9 6 DI
D3 16 4 DO
R1 7 8 1MEG
R2 7 6 1MEG
 
.MODEL MOS NMOS
+ LEVEL = 3
+ VTO   = 5.249
+ KP    = 3.446
+ THETA = 0.337
 
.MODEL Q PNP
+ IS    = 0.133E-25
+ VAF   = 10.003
+ BF    = 0.674
+ NE    = 1.947
+ ISE   = 0.187E-12
+ IKF   = 0.329
+ BR    = 0.872E-01
+ NC    = 1.351
+ NK    = 0.768
+ RB    = 0.101E-02
+ TF    = 0.958E-07
+ ITF   = 0.153
+ VTF   = 10.589
+ XTF   = 5.995
 
.MODEL DI D
+ IS    = 0.01E-12
+ CJO   = 0.166E-13
 
.MODEL DO D
+ IS    = 0.01E-12
+ CJO   = 0.119E-12
+ VJ    = 0.75
+ M     = 0.35
 
.MODEL DE D
+ IS    = 0.01E-12
+ CJO   = 0.582E-13
+ BV    = 665
+ VJ    = 0.75
+ M     = 0.35
 
.MODEL DG D
+ IS    = 0.01E-12
+ BV    = 665
+ VJ    = 0.75
+ M     = 0.35
 
.ENDS STGF6NC60HD
* END OF MODELLING
* MODELLING FOR STGF7NC60HD
 
.SUBCKT STGF7NC60HD 1 2 3
LG 10 2 7.5E-09
LE 3 15 7.5E-09
LC 13 1 4.5E-09
RG 10 5 2.301
RC 14 13 0.151E-03
RE 15 12 0.349E-02
RF 7 10 1MEG
RX 4 14 800.239
CGE 12 5 0.744E-09
CCG 17 4 0.934E-09
CK 16 4  0.188E-10
DCG 12 11 DG
Q1 12 11 14 Q
M1 11 5 12 12 MOS
E1 16 5 8 7 1
E2 17 5 6 7 1
G1 7 9 11 10 1u
D1  8 9 DI
D2  9 6 DI
D3 16 4 DO
R1 7 8 1MEG
R2 7 6 1MEG

 
.MODEL MOS NMOS
+ LEVEL = 3
+ VTO   = 6.955
+ KP    = 6.798
+ THETA = 0.264
 
.MODEL Q PNP
+ IS    = 0.105E-15
+ VAF   = 166.764
+ BF    = 0.258
+ NE    = 1.766
+ ISE   = 0.754E-15
+ IKF   = 0.154E-01
+ BR    = 0.447E-02
+ NC    = 1.204
+ NK    = 0.864
+ TF    = 1E-06
+ ITF   = 1
+ VTF   = 10
+ XTF   = 0.1
 
.MODEL DI D
+ IS    = 0.01E-12
+ RS    = 0
 
.MODEL DO D
+ IS    = 0.01E-12
+ CJO   = 50E-12
+ VJ    = 0.75
+ M     = 0.35
 
.MODEL DG D
+ IS    = 0.01E-12
+ BV    = 665
+ VJ    = 0.75
+ M     = 0.35
.ENDS STGF7NC60HD
* END OF MODELLING
* MODELLING FOR STGP20NC60V
 
.SUBCKT STGP20NC60V 1 2 3
LG 10 2 7.5E-09
LE 3 15 7.5E-09
LC 13 1 4.5E-09
RG 10 5 1.9
RC 14 13 0.679E-03
RE 15 12 0.176E-02
RF 7 10 1MEG
RX 4 14 799.975
CGE 12 5 0.212E-08
CCG 17 4 0.435E-08
CK 16 4  0.187E-10
DCG 12 11 DG
Q1 12 11 14 Q
M1 11 5 12 12 MOS
E1 16 5 8 7 1
E2 17 5 6 7 1
G1 7 9 11 10 1u
D1  8 9 DI
D2  9 6 DI
D3 16 4 DO
R1 7 8 1MEG
R2 7 6 1MEG

 
.MODEL MOS NMOS
+ LEVEL = 3
+ VTO   = 5.734
+ KP    = 16.995
+ THETA = 0.181
 
.MODEL Q PNP
+ IS    = 0.101E-15
+ VAF   = 100.760
+ BF    = 0.258
+ NE    = 1.379
+ ISE   = 0.497E-15
+ IKF   = 0.451
+ BR    = 0.944E-02
+ NC    = 1.639
+ NK    = 0.315
+ TF    = 1E-06
+ ITF   = 1
+ VTF   = 10
+ XTF   = 0.1
 
.MODEL DI D
+ IS    = 0.01E-12
+ RS    = 0
 
.MODEL DO D
+ IS    = 0.01E-12
+ CJO   = 50E-12
+ VJ    = 0.75
+ M     = 0.35
 
.MODEL DG D
+ IS    = 0.01E-12
+ BV    = 665
+ VJ    = 0.75
+ M     = 0.35
.ENDS STGP20NC60V 
* END OF MODELLING
*
*       _/_/_/_/_/_/                          
*     _/       _/                             
*      _/_/   _/          STMicroelectronics  
*         _/ _/                               
*   _/_/_/  _/                                
*   www.st.com                                
*                                             
* 
*****************************************************
*     Model Generated by STMicroelectronics         *
*             All Rights Reserved         	    *
*      Commercial Use or Resale Restricted          *
*****************************************************
* CREATION DATES: 03-08-2006                        *
*                                                   *
* POWER IGBT Model (Rev 1.0)                        *
*                                                   *
* EXTERNAL PINS DESCRIPTION:                        *
*                                                   *
* PIN 1 -> Collector                                *
* PIN 2 -> Gate                                     *
* PIN 3 -> Emitter                                  *
*                                                   *
*                    ****C****                      *
*            **********************                 *
*     ***************************************       *
*  PARAMETER MODELS EXTRACTED FROM MEASURED DATA    *
*              <<<<<<<<<<<>>>>>>>>>>>               *
*     ***************************************       *
*   THIS MODEL CAN BE USED AT TEMPERATURE: 25 °C    *
*                                                   *
*****************************************************
* MODELLING FOR STGP6NC60HD
 
.SUBCKT STGP6NC60HD 1 2 3
LG 10 2 7.5E-09
LE 3 15 7.5E-09
LC 13 1 4.5E-09
RG 10 5 15.001
RC 14 13 0.101E-02
RE 15 12 0.102E-02
RF 7 10 1MEG
RX 4 14 1.194
CGE 12 5 0.314E-09
CCG 17 4 0.316E-09
CK 16 4  0.907E-11
DCE 12 14 DE
DCG 12 11 DG
Q1 12 11 14 Q
M1 11 5 12 12 MOS
E1 16 5 8 7 1
E2 17 5 6 7 1
G1 7 9 11 10 1u
D1  8 9 DI
D2  9 6 DI
D3 16 4 DO
R1 7 8 1MEG
R2 7 6 1MEG
 
.MODEL MOS NMOS
+ LEVEL = 3
+ VTO   = 5.249
+ KP    = 3.446
+ THETA = 0.337
 
.MODEL Q PNP
+ IS    = 0.133E-25
+ VAF   = 10.003
+ BF    = 0.674
+ NE    = 1.947
+ ISE   = 0.187E-12
+ IKF   = 0.329
+ BR    = 0.872E-01
+ NC    = 1.351
+ NK    = 0.768
+ RB    = 0.101E-02
+ TF    = 0.958E-07
+ ITF   = 0.153
+ VTF   = 10.589
+ XTF   = 5.995
 
.MODEL DI D
+ IS    = 0.01E-12
+ CJO   = 0.166E-13
 
.MODEL DO D
+ IS    = 0.01E-12
+ CJO   = 0.119E-12
+ VJ    = 0.75
+ M     = 0.35
 
.MODEL DE D
+ IS    = 0.01E-12
+ CJO   = 0.582E-13
+ BV    = 665
+ VJ    = 0.75
+ M     = 0.35
 
.MODEL DG D
+ IS    = 0.01E-12
+ BV    = 665
+ VJ    = 0.75
+ M     = 0.35
 
.ENDS STGP6NC60HD
* END OF MODELLING
*
*       _/_/_/_/_/_/                          
*     _/       _/                             
*      _/_/   _/          STMicroelectronics  
*         _/ _/                               
*   _/_/_/  _/                                
*   www.st.com                                
*                                             
* 
*****************************************************
*     Model Generated by STMicroelectronics         *
*             All Rights Reserved         	    *
*      Commercial Use or Resale Restricted          *
*****************************************************
* REVIEW 2007                                       *
*                                                   *
* POWER IGBT Model (Rev 1.0)                        *
*                                                   *
* EXTERNAL PINS DESCRIPTION:                        *
*                                                   *
* PIN 1 -> Collector                                *
* PIN 2 -> Gate                                     *
* PIN 3 -> Emitter                                  *
*                                                   *
*                    ****C****                      *
*            **********************                 *
*     ***************************************       *
*  PARAMETER MODELS EXTRACTED FROM MEASURED DATA    *
*              <<<<<<<<<<<>>>>>>>>>>>               *
*     ***************************************       *
*   THIS MODEL CAN BE USED AT TEMPERATURE: 25 °C    *
*                                                   *
*****************************************************
* MODELLING FOR STGP7NC60HD
 
.SUBCKT STGP7NC60HD 1 2 3
LG 10 2 7.5E-09
LE 3 15 7.5E-09
LC 13 1 4.5E-09
RG 10 5 2.301
RC 14 13 0.151E-03
RE 15 12 0.349E-02
RF 7 10 1MEG
RX 4 14 800.239
CGE 12 5 0.744E-09
CCG 17 4 0.934E-09
CK 16 4  0.188E-10
DCG 12 11 DG
Q1 12 11 14 Q
M1 11 5 12 12 MOS
E1 16 5 8 7 1
E2 17 5 6 7 1
G1 7 9 11 10 1u
D1  8 9 DI
D2  9 6 DI
D3 16 4 DO
R1 7 8 1MEG
R2 7 6 1MEG
 
.MODEL MOS NMOS
+ LEVEL = 3
+ VTO   = 6.955
+ KP    = 6.798
+ THETA = 0.264
 
.MODEL Q PNP
+ IS    = 0.105E-15
+ VAF   = 166.764
+ BF    = 0.258
+ NE    = 1.766
+ ISE   = 0.754E-15
+ IKF   = 0.154E-01
+ BR    = 0.447E-02
+ NC    = 1.204
+ NK    = 0.864
+ TF    = 1E-06
+ ITF   = 1
+ VTF   = 10
+ XTF   = 0.1
 
.MODEL DI D
+ IS    = 0.01E-12
+ RS    = 0
 
.MODEL DO D
+ IS    = 0.01E-12
+ CJO   = 50E-12
+ VJ    = 0.75
+ M     = 0.35
 
.MODEL DG D
+ IS    = 0.01E-12
+ BV    = 665
+ VJ    = 0.75
+ M     = 0.35

.ENDS STGP7NC60HD
 
* END OF MODELLING

* MODELLING FOR STGW20NC60V
 
.SUBCKT STGW20NC60V 1 2 3
LG 10 2 7.5E-09
LE 3 15 7.5E-09
LC 13 1 4.5E-09
RG 10 5 1.9
RC 14 13 0.679E-03
RE 15 12 0.176E-02
RF 7 10 1MEG
RX 4 14 799.975
CGE 12 5 0.212E-08
CCG 17 4 0.435E-08
CK 16 4  0.187E-10
DCG 12 11 DG
Q1 12 11 14 Q
M1 11 5 12 12 MOS
E1 16 5 8 7 1
E2 17 5 6 7 1
G1 7 9 11 10 1u
D1  8 9 DI
D2  9 6 DI
D3 16 4 DO
R1 7 8 1MEG
R2 7 6 1MEG

 
.MODEL MOS NMOS
+ LEVEL = 3
+ VTO   = 5.734
+ KP    = 16.995
+ THETA = 0.181
 
.MODEL Q PNP
+ IS    = 0.101E-15
+ VAF   = 100.760
+ BF    = 0.258
+ NE    = 1.379
+ ISE   = 0.497E-15
+ IKF   = 0.451
+ BR    = 0.944E-02
+ NC    = 1.639
+ NK    = 0.315
+ TF    = 1E-06
+ ITF   = 1
+ VTF   = 10
+ XTF   = 0.1
 
.MODEL DI D
+ IS    = 0.01E-12
+ RS    = 0
 
.MODEL DO D
+ IS    = 0.01E-12
+ CJO   = 50E-12
+ VJ    = 0.75
+ M     = 0.35
 
.MODEL DG D
+ IS    = 0.01E-12
+ BV    = 665
+ VJ    = 0.75
+ M     = 0.35
.ENDS STGW20NC60V 
* END OF MODELLING
* MODELLING FOR STGW20NC60VD
 
.SUBCKT STGW20NC60VD 1 2 3
LG 10 2 7.5E-09
LE 3 15 7.5E-09
LC 13 1 4.5E-09
RG 10 5 1.9
RC 14 13 0.679E-03
RE 15 12 0.176E-02
RF 7 10 1MEG
RX 4 14 799.975
CGE 12 5 0.212E-08
CCG 17 4 0.435E-08
CK 16 4  0.187E-10
DCG 12 11 DG
Q1 12 11 14 Q
M1 11 5 12 12 MOS
E1 16 5 8 7 1
E2 17 5 6 7 1
G1 7 9 11 10 1u
D1  8 9 DI
D2  9 6 DI
D3 16 4 DO
R1 7 8 1MEG
R2 7 6 1MEG

 
.MODEL MOS NMOS
+ LEVEL = 3
+ VTO   = 5.734
+ KP    = 16.995
+ THETA = 0.181
 
.MODEL Q PNP
+ IS    = 0.101E-15
+ VAF   = 100.760
+ BF    = 0.258
+ NE    = 1.379
+ ISE   = 0.497E-15
+ IKF   = 0.451
+ BR    = 0.944E-02
+ NC    = 1.639
+ NK    = 0.315
+ TF    = 1E-06
+ ITF   = 1
+ VTF   = 10
+ XTF   = 0.1
 
.MODEL DI D
+ IS    = 0.01E-12
+ RS    = 0
 
.MODEL DO D
+ IS    = 0.01E-12
+ CJO   = 50E-12
+ VJ    = 0.75
+ M     = 0.35
 
.MODEL DG D
+ IS    = 0.01E-12
+ BV    = 665
+ VJ    = 0.75
+ M     = 0.35
.ENDS STGW20NC60VD
* END OF MODELLING
*
*       _/_/_/_/_/_/                          
*     _/       _/                             
*      _/_/   _/          STMicroelectronics  
*         _/ _/                               
*   _/_/_/  _/                                
*   www.st.com                                
*                                             
* 
*****************************************************
*     Model Generated by STMicroelectronics         *
*             All Rights Reserved         	    *
*      Commercial Use or Resale Restricted          *
*****************************************************
* REVIEW 2007                                       *
*                                                   *
* POWER IGBT Model (Rev 1.0)                        *
*                                                   *
* EXTERNAL PINS DESCRIPTION:                        *
*                                                   *
* PIN 1 -> Collector                                *
* PIN 2 -> Gate                                     *
* PIN 3 -> Emitter                                  *
*                                                   *
*                    ****C****                      *
*            **********************                 *
*     ***************************************       *
*  PARAMETER MODELS EXTRACTED FROM MEASURED DATA    *
*              <<<<<<<<<<<>>>>>>>>>>>               *
*     ***************************************       *
*   THIS MODEL CAN BE USED AT TEMPERATURE: 25 °C    *
*                                                   *
*****************************************************

* MODELLING FOR STGW40NC60V
 
.SUBCKT STGW40NC60V 1 2 3
LG 10 2 7.5E-09
LE 3 15 7.5E-09
LC 13 1 4.5E-09
RG 10 5 1.7
RC 14 13 0.399E-02
RE 15 12 0.695E-03
RF 7 10 1MEG
RX 4 14 777.962
CGE 12 5 0.398E-08
CCG 17 4 0.654E-08
CK 16 4  0.139E-09
DCG 12 11 DG
Q1 12 11 14 Q
M1 11 5 12 12 MOS
E1 16 5 8 7 1
E2 17 5 6 7 1
G1 7 9 11 10 1u
D1  8 9 DI
D2  9 6 DI
D3 16 4 DO
R1 7 8 1MEG
R2 7 6 1MEG
 
.MODEL MOS NMOS
+ LEVEL = 3
+ VTO   = 5.274
+ KP    = 34.453
+ THETA = 0.187
 
.MODEL Q PNP
+ IS    = 0.102E-15
+ VAF   = 102.035
+ BF    = 0.241
+ NE    = 1.613
+ ISE   = 0.201E-14
+ IKF   = 0.102E-01
+ BR    = 0.179E-02
+ NC    = 2.881
+ NK    = 0.648
+ TF    = 1E-06
+ ITF   = 1
+ VTF   = 10
+ XTF   = 0.1
 
.MODEL DI D
+ IS    = 0.01E-12
+ RS    = 0
 
.MODEL DO D
+ IS    = 0.01E-12
+ CJO   = 50E-12
+ VJ    = 0.75
+ M     = 0.35
 
.MODEL DG D
+ IS    = 0.01E-12
+ BV    = 675
+ VJ    = 0.75
+ M     = 0.35

.ENDS STGW40NC60V 
* END OF MODELLING

*

* MODELLING FOR STGY40NC60VD
 
.SUBCKT STGY40NC60VD 1 2 3
LG 10 2 7.5E-09
LE 3 15 7.5E-09
LC 13 1 4.5E-09