* INA103 = A1_103 + A2_103 + A3_103 OP AMPS + PRECISION RESISTOR NETWORK
* CREATED ON 10/30/90 AT 15:01
* REV.A
*  ------------------------------------------------------------------------ 
* |  NOTICE: THE INFORMATION PROVIDED HEREIN IS BELIEVED TO BE RELIABLE;   |
* |  HOWEVER; BURR-BROWN ASSUMES NO RESPONSIBILITY FOR INACCURACIES OR     |
* |  OMISSIONS.  BURR-BROWN ASSUMES NO RESPONSIBILITY FOR THE USE OF THIS  |
* |  INFORMATION, AND ALL USE OF SUCH INFORMATION SHALL BE ENTIRELY AT     |
* |  THE USER'S OWN RISK.  NO PATENT RIGHTS OR LICENSES TO ANY OF THE      |
* |  CIRCUITS DESCRIBED HEREIN ARE IMPLIED OR GRANTED TO ANY THIRD PARTY.  |
* |  BURR-BROWN DOES NOT AUTHORIZE OR WARRANT ANY BURR-BROWN PRODUCT FOR   |
* |  USE IN LIFE-SUPPORT DEVICES AND/OR SYSTEMS.                           |
*  ------------------------------------------------------------------------ 
*
*
***** INA103 SUB-CIRCUIT
* CONNECTIONS:          NON-INVERTING INPUT
*                       |   INVERTING INPUT
*                       |   |   POSITIVE POWER SUPPLY
*                       |   |   |   NEGATIVE POWER SUPPLY
*                       |   |   |   |   OUTPUT
*                       |   |   |   |   |   REFERENCE
*                       |   |   |   |   |   |   GAIN SENSE 1
*                       |   |   |   |   |   |   |   GAIN SENSE 2
*                       |   |   |   |   |   |   |   |
*.SUBCKT INA103         1   2   3   4   5   8   9  10  
*** Reference: http://focus.ti.com/lit/ds/symlink/ina103.pdf, HS 6/8/2003
*** Change, add missing pins, HS 6/8/2003 
*** Change, remove internal shorts of feedback resistors to other pins, HS 6/8/2003   
***                                                    -RG +RG -GD +GD SNS G100
.SUBCKT INA103          1   2   3   4   5   8   9  10  109 110  11  12 105 111

*** This would be the pin list if the original netlist will be used. HS 6/8/2003
*.SUBCKT INA103         1   2   3   4   5   8   9  10    9  10  11  12   5 111
*

***** A1_103 SUB-CIRCUIT
* CONNECTIONS:          NON-INVERTING INPUT
*                       |   INVERTING INPUT
*                       |   |   POSITIVE POWER SUPPLY
*                       |   |   |   NEGATIVE POWER SUPPLY
*                       |   |   |   |   OUTPUT
*                       |   |   |   |   |
X1                     15  17   3   4  11   A1_103
*

***** A2_103 SUB-CIRCUIT
* CONNECTIONS:          NON-INVERTING INPUT
*                       |   INVERTING INPUT
*                       |   |   POSITIVE POWER SUPPLY
*                       |   |   |   NEGATIVE POWER SUPPLY
*                       |   |   |   |   OUTPUT
*                       |   |   |   |   |
X2                     15  16   3   4  12   A2_103
*

***** A3_103 SUB-CIRCUIT
* CONNECTIONS:          NON-INVERTING INPUT
*                       |   INVERTING INPUT
*                       |   |   POSITIVE POWER SUPPLY
*                       |   |   |   NEGATIVE POWER SUPPLY
*                       |   |   |   |   OUTPUT
*                       |   |   |   |   |
X3                     14  13   3   4   5   A3_103
*

*** Change, add resistor for  gain = 100, HS 6/8/2003 
R910 109 111 60.6

R1    11  13   6.0000K

*** Change, seperate connection SENSE, HS 6/8/2003
*R2    13   5   5.9994K
R2    13   105   5.9994K

C2    13   5   2.0000PF
R3    12  14   6.0000K
R4    14   8   6.0000K
*

*** Change, seperate connection -Rg, HS 6/8/2003
*R1FB   9  11   3.0000K
R1FB   109  11   3.0000K

CC1   17  11  35.0000PF

*** Change, seperate connection +Rg, HS 6/8/2003
*R2FB  10  12   3.0000K
R2FB  110  12   3.0000K

CC2   16  12  35.0000PF
*
RCE   17   9   75MEG
*
I1     3  16  DC  1.300E-3
I2     3  17  DC  1.300E-3
I3    10   4  DC  1.300E-3
I4     9   4  DC  1.300E-3
*
D1    17  15      DX
D2    16  15      DX
*
Q1    16   1  10  QX
Q2    17   2   9  QX
*
V1     3  15  DC  2.000
*
.MODEL DX D(IS=1.0E-24)

.MODEL QX NPN(IS=800.0E-18 BF=500)

.ENDS

* A1_103 OPERATIONAL AMPLIFIER "MACROMODEL" SUBCIRCUIT
* CREATED USING PARTS RELEASE 4.03 ON 11/15/90 AT 13:24
*
* CONNECTIONS:   NON-INVERTING INPUT
*                | INVERTING INPUT
*                | | POSITIVE POWER SUPPLY
*                | | | NEGATIVE POWER SUPPLY
*                | | | | OUTPUT
*                | | | | |
.SUBCKT A1_103   1 2 3 4 5
*
C1   11 12 2.098E-12
C2    6  7 5.000E-12
DC    5 53 DX
DE   54  5 DX
DLP  90 91 DX
DLN  92 90 DX
DP    4  3 DX
EGND 99  0 POLY(2) (3,0) (4,0) 0 .5 .5
FB    7 99 POLY(5) VB VC VE VLP VLN 0 2.653E6 -3E6 3E6 3E6 -3E6
GA    6  0 11 12 188.5E-6
GCM   0  6 10 99 2.987E-9
ISS   3 10 DC 100.0E-6
HLIM 90  0 VLIM 1K
J1   11  2 10 JX
J2   12  1 10 JX
R2    6  9 100.0E3
RD1   4 11 5.305E3
RD2   4 12 5.305E3
RO1   8  5 20
RO2   7 99 20
RP    3  4 14.06E3
RSS  10 99 2.000E6
VB    9  0 DC 0
VC    3 53 DC 3
VE   54  4 DC 3
VLIM  7  8 DC 0
VLP  91  0 DC 50
VLN   0 92 DC 50
.MODEL DX D(IS=800.0E-18)
.MODEL JX PJF(IS=2.500E-12 BETA=177.7E-6 VTO=-1)
.ENDS

* A2_103 OPERATIONAL AMPLIFIER "MACROMODEL" SUBCIRCUIT
* CREATED USING PARTS RELEASE 4.03 ON 11/13/90 AT 11:47
*
* CONNECTIONS:   NON-INVERTING INPUT
*                | INVERTING INPUT
*                | | POSITIVE POWER SUPPLY
*                | | | NEGATIVE POWER SUPPLY
*                | | | | OUTPUT
*                | | | | |
.SUBCKT A2_103   1 2 3 4 5
*
C1   11 12 2.098E-12
C2    6  7 5.000E-12
DC    5 53 DX
DE   54  5 DX
DLP  90 91 DX
DLN  92 90 DX
DP    4  3 DX
EGND 99  0 POLY(2) (3,0) (4,0) 0 .5 .5
FB    7 99 POLY(5) VB VC VE VLP VLN 0 2.653E6 -3E6 3E6 3E6 -3E6
GA    6  0 11 12 188.5E-6
GCM   0  6 10 99 2.987E-9
ISS   3 10 DC 100.0E-6
HLIM 90  0 VLIM 1K
J1   11  2 10 JX
J2   12  1 10 JX
R2    6  9 100.0E3
RD1   4 11 5.305E3
RD2   4 12 5.305E3
RO1   8  5 20
RO2   7 99 20
RP    3  4 14.06E3
RSS  10 99 2.000E6
VB    9  0 DC 0
VC    3 53 DC 3
VE   54  4 DC 3
VLIM  7  8 DC 0
VLP  91  0 DC 50
VLN   0 92 DC 50
.MODEL DX D(IS=800.0E-18)
.MODEL JX PJF(IS=2.500E-12 BETA=177.7E-6 VTO=-1)
.ENDS

* A3_103 OPERATIONAL AMPLIFIER "MACROMODEL" SUBCIRCUIT
* CREATED USING PARTS RELEASE 4.03 ON 11/09/90 AT 10:20
*
* CONNECTIONS:   NON-INVERTING INPUT
*                | INVERTING INPUT
*                | | POSITIVE POWER SUPPLY
*                | | | NEGATIVE POWER SUPPLY
*                | | | | OUTPUT
*                | | | | |
.SUBCKT A3_103   1 2 3 4 5
*
C1   11 12 3.356E-12
C2    6  7 8.000E-12
DC    5 53 DX
DE   54  5 DX
DLP  90 91 DX
DLN  92 90 DX
DP    4  3 DX
EGND 99  0 POLY(2) (3,0) (4,0) 0 .5 .5
FB    7 99 POLY(5) VB VC VE VLP VLN 0 16.62E6 -20E6 20E6 20E6 -20E6
GA    6  0 11 12 301.6E-6
GCM   0  6 10 99 4.780E-9
ISS   3 10 DC 160.0E-6
HLIM 90  0 VLIM 1K
J1   11  2 10 JX
J2   12  1 10 JX
R2    6  9 100.0E3
RD1   4 11 3.316E3
RD2   4 12 3.316E3
RO1   8  5 10
RO2   7 99 10
RP    3  4 14.06E3
RSS  10 99 1.250E6
VB    9  0 DC 0
VC    3 53 DC 3
VE   54  4 DC 3
VLIM  7  8 DC 0
VLP  91  0 DC 70
VLN   0 92 DC 70
.MODEL DX D(IS=800.0E-18)
.MODEL JX PJF(IS=2.500E-12 BETA=284.3E-6 VTO=-1)
.ENDS
*
*
* Library of Burr-Brown Opamps
* $Revision:   1.28  $
* $Author:   RPEREZ  $
* $Date:   25 Mar 1998 08:47:36  $
*
**************************************************************************
*
*                           WELCOME TO
*
*                      BURR-BROWN CORPORATION
*                  SPICE BASED MACROMODEL LIBRARY
*
*                       6730 S. TUCSON BLVD.
*                       TUCSON,  AZ  85706
*                          800-548-6132
*
*
*
* INTRODUCTION
* This library is a collection of SPICE macromodels of BURR-BROWN op amps,
* difference amps, instrumentation amps, isolation amps, and analog 
* function circuits. 
*	
* The Standard macromodels were derived using standard simulation
* software. This software uses the common Boyle op amp model structure.
*	
* The second level of macromodel is an enhanced version of the standard
* model, which is indicated by the suffix "E" in the model's name.
* These models offer improved behaviour in terms of input bias current
* and quiescent power. Also, voltage and current noise as well
* as input capacitance is added.
*
* The Multiple Pole/Zero macromodels uses the same input stage as the 
* standard or enhanced op amp macromodel, but has multiple poles and 
* pole/zero pairs in the mid-section. These models have the designation
* "M", and are primarily used for wide bandwidth op amps.
*
* In some instances, a fourth type of model is available, which are
* designated by either a "X", "X1" or a "X2" suffix. The models of this
* level are not a "macromodel", but rather a simplified circuit model
* at the transistor level.
*
* This library is complemented by the application bulletin AB-020F, which
* contains more information and details on the topologies used. Please write or call 
* BURR-BROWN at the address and number given above in order to obtain one.
*
* APPLICATION INFORMATION
* This library and the application bulletin are revised frequently.
* To ensure that you have the most current revision, please contact your
* nearest sales office or BURR-BROWN directly.
*
* Each model net-list starts with a header containing the part number and the 	
* revision date. The structure of the net-list co
* Also, the format of the file specification has been changed in order
* to provide a better and faster overview. The 'date' following the file
* name now reflects the actual date of creation of each model. The 'time'
* is now used as an indicator for the revision status of each model. 
* For example:
* OPA131E.MOD   1-15-95  1:00:00 am   ---> REV.A
* OPA121E.MOD   3-21-92  2:00:00 am   ---> REV.B    etc.
*
* Happy simulation!!
*
*  ------------------------------------------------------------------------ 
* |  NOTICE: THE INFORMATION PROVIDED HEREIN IS BELIEVED TO BE RELIABLE;   |
* |  HOWEVER; BURR-BROWN ASSUMES NO RESPONSIBILITY FOR INACCURACIES OR     |
* |  OMISSIONS.  BURR-BROWN ASSUMES NO RESPONSIBILITY FOR THE USE OF THIS  |
* |  INFORMATION, AND ALL USE OF SUCH INFORMATION SHALL BE ENTIRELY AT     |
* |  THE USER'S OWN RISK.  NO PATENT RIGHTS OR LICENSES TO ANY OF THE      |
* |  CIRCUITS DESCRIBED HEREIN ARE IMPLIED OR GRANTED TO ANY THIRD PARTY.  |
* |  BURR-BROWN DOES NOT AUTHORIZE OR WARRANT ANY BURR-BROWN PRODUCT FOR   |
* |  USE IN LIFE-SUPPORT DEVICES AND/OR SYSTEMS.                           |
*  ------------------------------------------------------------------------ 
* While reasonable care has been taken in their preparation, we cannot
* be responsible for correct application on any and all computer
* systems.
*
* Model users are hereby notified that these models are supplied
* "as is", with no direct or implied responsibility on the part of
* Burr-Brown for their operation within a customer circuit or system.
* Further, Burr-Brown Corporation reserves the right to change these
* models without prior notice.
*
* In all cases, the current data sheet information for a given real
* device is your final design guideline, and is the only actual
* performance guarantee.
*$
**************************************************************************
* INA111 = A1_111 + A2_111 + A3_111 OP AMPS + PRECISION RESISTOR NETWORK
* CREATED ON 12/1/92 AT 10:00 HB
* REV.A
* REV.B  18 JUNE 97 NPA: MOVED LEGAL DISCLAIMER TO BEGINNING OF FILE
*
* INA111 SUB-CIRCUIT
* CONNECTIONS:             NON-INVERTING INPUT
*                          |   INVERTING INPUT
*                          |   |   POSITIVE POWER SUPPLY
*                          |   |   |   NEGATIVE POWER SUPPLY
*                          |   |   |   |   OUTPUT
*                          |   |   |   |   |   REFERENCE
*                          |   |   |   |   |   |   GAIN SENSE 1
*                          |   |   |   |   |   |   |   GAIN SENSE 2
*                          |   |   |   |   |   |   |   |
.SUBCKT INA111/BB          1   2   3   4   5   8   9  10
*
* A1_111 SUB-CIRCUIT
* CONNECTIONS:          NON-INVERTING INPUT
*                       |   INVERTING INPUT
*                       |   |   POSITIVE POWER SUPPLY
*                       |   |   |   NEGATIVE POWER SUPPLY
*                       |   |   |   |   OUTPUT
*                       |   |   |   |   |
X1                     15  17   3   4  11   A1_111
*
* A2_111 SUB-CIRCUIT
* CONNECTIONS:          NON-INVERTING INPUT
*                       |   INVERTING INPUT
*                       |   |   POSITIVE POWER SUPPLY
*                       |   |   |   NEGATIVE POWER SUPPLY
*                       |   |   |   |   OUTPUT
*                       |   |   |   |   |
X2                     15  16   3   4  12   A2_111
*
* A3_111 SUB-CIRCUIT
* CONNECTIONS:          NON-INVERTING INPUT
*                       |   INVERTING INPUT
*                       |   |   POSITIVE POWER SUPPLY
*                       |   |   |   NEGATIVE POWER SUPPLY
*                       |   |   |   |   OUTPUT
*                       |   |   |   |   |
X3                     14  13   3   4   5   A3_111
*
R1    11  13   10.0000E3
R3    12  14   10.0000E3
R2    13   5    9.9993E3
R4    14   8   10.0000E3
C2    13   5    6.0000E-12
C4    14   8    5.0000E-12
R1FB   9  11   25.0000E3
R2FB  10  12   25.0000E3
CC1   17  11   5.0000E-12
CC2   16  12   5.5000E-12
RCE   17   9   400E6
I1     3  16  DC  50.00E-6
I2     3  17  DC  50.00E-6
I3    10   4  DC  50.00E-6
I4     9   4  DC  50.00E-6
I5     3  21  DC 200.00E-6
I6     3  22  DC 200.00E-6
CG1    9   0  13.5000E-12
CG2   10   0  12.0000E-12
D1    17  15      DX
D2    16  15      DX
Q1    16  21  10  QX
Q2    17  22   9  QX
J1     4   1  21  JX
J2     4   2  22  JX
V1     3  15  DC  3.000
*
.MODEL DX D(IS=1.0E-24)
.MODEL QX NPN(IS=800.0E-18 BF=500)
.MODEL JX PJF(IS=10.00E-12 BETA=500.0E-6 VTO=-1)
.ENDS
*
* A1_111 OPERATIONAL AMPLIFIER "MACROMODEL" SUBCIRCUIT
* CREATED USING PARTS RELEASE 4.03 ON 11/1/92 AT 10:00
*
* CONNECTIONS:   NON-INVERTING INPUT
*                | INVERTING INPUT
*                | | POSITIVE POWER SUPPLY
*                | | | NEGATIVE POWER SUPPLY
*                | | | | OUTPUT
*                | | | | |
.SUBCKT A1_111   1 2 3 4 5
*
C1   11 12 1.443E-12
C2    6  7 5.000E-12
DC    5 53 DX
DE   54  5 DX
DLP  90 91 DX
DLN  92 90 DX
DP    4  3 DX
EGND 99  0 POLY(2) (3,0) (4,0) 0 .5 .5
FB    7 99 POLY(5) VB VC VE VLP VLN 0 2.653E3 -3E3 3E3 3E3 -3E3
GA    6  0 11 12 628.3E-6
GCM   0  6 10 99 6.283E-6
ISS   3 10 DC 250.0E-6
HLIM 90  0 VLIM 1E3
J1   11  2 10 JX
J2   12  1 10 JX
R2    6  9 100.0E3
RD1   4 11 1.592E3
RD2   4 12 1.592E3
RO1   8  5 60
RO2   7 99 60
RP    3  4 37.50E3
RSS  10 99 800.0E3
VB    9  0 DC 0
VC    3 53 DC 2
VE   54  4 DC 1
VLIM  7  8 DC 0
VLP  91  0 DC 60
VLN   0 92 DC 60
*
.MODEL DX D(IS=800.0E-18)
.MODEL JX PJF(IS=5.000E-12 BETA=789.5E-6 VTO=-1)
.ENDS
*
* A2_111 OPERATIONAL AMPLIFIER "MACROMODEL" SUBCIRCUIT
* CREATED USING PARTS RELEASE 4.03 ON 11/1/92 AT 10:00
*
* CONNECTIONS:   NON-INVERTING INPUT
*                | INVERTING INPUT
*                | | POSITIVE POWER SUPPLY
*                | | | NEGATIVE POWER SUPPLY
*                | | | | OUTPUT
*                | | | | |
.SUBCKT A2_111   1 2 3 4 5
*
C1   11 12 1.443E-12
C2    6  7 5.000E-12
DC    5 53 DX
DE   54  5 DX
DLP  90 91 DX
DLN  92 90 DX
DP    4  3 DX
EGND 99  0 POLY(2) (3,0) (4,0) 0 .5 .5
FB    7 99 POLY(5) VB VC VE VLP VLN 0 2.653E3 -3E3 3E3 3E3 -3E3
GA    6  0 11 12 628.3E-6
GCM   0  6 10 99 6.283E-6
ISS   3 10 DC 250.0E-6
HLIM 90  0 VLIM 1E3
J1   11  2 10 JX
J2   12  1 10 JX
R2    6  9 100.0E3
RD1   4 11 1.592E3
RD2   4 12 1.592E3
RO1   8  5 60
RO2   7 99 60
RP    3  4 37.50E3
RSS  10 99 800.0E3
VB    9  0 DC 0
VC    3 53 DC 2
VE   54  4 DC 1
VLIM  7  8 DC 0
VLP  91  0 DC 60
VLN   0 92 DC 60
.MODEL DX D(IS=800.0E-18)
.MODEL JX PJF(IS=5.000E-12 BETA=789.5E-6 VTO=-1)
.ENDS
*
* A3_111 OPERATIONAL AMPLIFIER "MACROMODEL" SUBCIRCUIT
* CREATED USING PARTS RELEASE 4.03 ON 11/1/92 AT 10:00
*
* CONNECTIONS:   NON-INVERTING INPUT
*                | INVERTING INPUT
*                | | POSITIVE POWER SUPPLY
*                | | | NEGATIVE POWER SUPPLY
*                | | | | OUTPUT
*                | | | | |
.SUBCKT A3_111   1 2 3 4 5
*
C1   11 12 7.151E-12
C2    6  7 12.00E-12
DC    5 53 DX
DE   54  5 DX
DLP  90 91 DX
DLN  92 90 DX
DP    4  3 DX
EGND 99  0 POLY(2) (3,0) (4,0) 0 .5 .5
FB    7 99 POLY(5) VB VC VE VLP VLN 0 27.96E6 -30E6 30E6 30E6 -30E6
GA    6  0 11 12 377.0E-6
GCM   0  6 10 99 1.889E-9
ISS   3 10 DC 240.0E-6
HLIM 90  0 VLIM 1E3
J1   11  2 10 JX
J2   12  1 10 JX
R2    6  9 100.0E3
RD1   4 11 2.653E3
RD2   4 12 2.653E3
RO1   8  5 30
RO2   7 99 30
RP    3  4 37.50E3
RSSS  10 99 833.3E3
VB    9  0 DC 0
VC    3 53 DC 2.300
VE   54  4 DC 2.300
VLIM  7  8 DC 0
VLP  91  0 DC 25
VLN   0 92 DC 25
*
.MODEL DX D(IS=800.0E-18)
.MODEL JX PJF(IS=5.000E-12 BETA=296.0E-6 VTO=-1)
.ENDS
*$
**************************************************************************
* INA111E = A1_111E + A2_111E + A3_111E OP AMPS + PRECISION RESISTOR NETWORK
* "E" IS ENHANCED MODEL
* CREATED ON 12/1/92 AT 10:00 HB
* REV.A
*
* |-------------------------------------------------------------|
* |  This macro model is being supplied as an aid to            |
* |  circuit designs.  While it reflects reasonably close       |
* |  similarity to the actual device in terms of performance,   |
* |  it is not suggested as a replacement for breadboarding.    |
* |  Simulation should be used as a forerunner or a supplement  |
* |  to traditional lab testing.                                |
* |                                                             |
* |  Neither this library nor any part may be copied without    |
* |  the express written consent of Burr-Brown Corporation.     |
* |                                                             |
* |-------------------------------------------------------------|
*
* INA111E SUB-CIRCUIT
* CONNECTIONS:             NON-INVERTING INPUT
*                          |   INVERTING INPUT
*                          |   |   POSITIVE POWER SUPPLY
*                          |   |   |   NEGATIVE POWER SUPPLY
*                          |   |   |   |   OUTPUT
*                          |   |   |   |   |   REFERENCE
*                          |   |   |   |   |   |   GAIN SENSE 1
*                          |   |   |   |   |   |   |   GAIN SENSE 2
*                          |   |   |   |   |   |   |   |
.SUBCKT INA111E/BB         1   2   3   4   5   8   9  10
*
* A1_111E SUB-CIRCUIT
* CONNECTIONS:          NON-INVERTING INPUT
*                       |   INVERTING INPUT
*                       |   |   POSITIVE POWER SUPPLY
*                       |   |   |   NEGATIVE POWER SUPPLY
*                       |   |   |   |   OUTPUT
*                       |   |   |   |   |
X1                     15  17   3   4  11   A1_111E
*
* A2_111E SUB-CIRCUIT
* CONNECTIONS:          NON-INVERTING INPUT
*                       |   INVERTING INPUT
*                       |   |   POSITIVE POWER SUPPLY
*                       |   |   |   NEGATIVE POWER SUPPLY
*                       |   |   |   |   OUTPUT
*                       |   |   |   |   |
X2                     15  16   3   4  12   A2_111E
*
* A3_111E SUB-CIRCUIT
* CONNECTIONS:          NON-INVERTING INPUT
*                       |   INVERTING INPUT
*                       |   |   POSITIVE POWER SUPPLY
*                       |   |   |   NEGATIVE POWER SUPPLY
*                       |   |   |   |   OUTPUT
*                       |   |   |   |   |
X3                     14  13   3   4   5   A3_111E
*
R1    11  13   10.0000E3
R3    12  14   10.0000E3
R2    13   5    9.9993E3
R4    14   8   10.0000E3
C2    13   5    6.0000E-12
C4    14   8    5.0000E-12
R1FB   9  11   25.0000E3
R2FB  10  12   25.0000E3
CC1   17  11    5.0000E-12
CC2   16  12    5.5000E-12
RCE   17   9   400E6
I1     3  16  DC  50.00E-6
I2     3  17  DC  50.00E-6
I3    10   4  DC  50.00E-6
I4     9   4  DC  50.00E-6
I5     3  21  DC 200.00E-6
I6     3  22  DC 200.00E-6
CG1    9   0   13.5000E-12
CG2   10   0   12.0000E-12
D1    17  15      DX
D2    16  15      DX
Q1    16  21  10  QX
Q2    17  22   9  QX
J1     4   1  21  JX
J2     4   2  22  JX
V1     3  15  DC  3.000
C1CM   1   0    1.0E-12
C2CM   2   0    1.0E-12
CDIF   1   2    6.0E-12
*
.MODEL DX D(IS=1.0E-24)
.MODEL QX NPN(IS=800.0E-18 BF=500)
.MODEL JX PJF(IS=10.00E-12 BETA=500.0E-6 VTO=-1)
.ENDS
*
* A1_111E OPERATIONAL AMPLIFIER "MACROMODEL" SUBCIRCUIT
* "E" IS ENHANCED MODEL
* CREATED USING PARTS RELEASE 4.03 ON 11/1/92 AT 10:00
*
* CONNECTIONS:   NON-INVERTING INPUT
*                | INVERTING INPUT
*                | | POSITIVE POWER SUPPLY
*                | | | NEGATIVE POWER SUPPLY
*                | | | | OUTPUT
*                | | | | |
.SUBCKT A1_111E  1 2 3 4 5
*
C1   11 12 1.443E-12
C2    6  7 5.000E-12
DC    5 53 DX
DE   54  5 DX
DLP  90 91 DX
DLN  92 90 DX
DP    4  3 DX
EGND 99  0 POLY(2) (3,0) (4,0) 0 .5 .5
FB    7 99 POLY(5) VB VC VE VLP VLN 0 2.653E3 -3E3 3E3 3E3 -3E3
GA    6  0 11 12 628.3E-6
GCM   0  6 10 99 6.283E-6
ISS   3 10 DC 250.0E-6
HLIM 90  0 VLIM 1E3
J1   11  2 10 JX
J2   12  1 10 JX
R2    6  9 100.0E3
RD1   4 11 1.592E3
RD2   4 12 1.592E3
RO1   8  5 60
RO2   7 99 60
*  RP    3  4 37.50E3
RSS  10 99 800.0E3
VB    9  0 DC 0
VC    3 53 DC 2
VE   54  4 DC 1
VLIM  7  8 DC 0
VLP  91  0 DC 60
VLN   0 92 DC 60
****************************
* A1_111 "E" - ENHANCEMENTS
****************************
* OUTPUT SUPPLY MIRROR
FQ3   0 20 POLY(1) VLIM 0  1
DQ1  20 21 DX
DQ2  22 20 DX
VQ1  21  0 0
VQ2  22  0 0
FQ1   3  0 POLY(1) VQ1  4.16E-4  1
FQ2   0  4 POLY(1) VQ2  4.16E-4 -1
* QUIESCIENT CURRENT
RQ    3  4  2.25E5
* DIFF INPUT CAPACITANCE
CDIF  1  2  1.0E-12
* COMMON MODE INPUT CAPACITANCE
C1CM  1  99 1.0E-12
C2CM  2  99 1.0E-12
*
.MODEL DX D(IS=800.0E-18)
.MODEL JX PJF(IS=5.000E-12 BETA=789.5E-6 VTO=-1)
.ENDS
*
* A2_111E OPERATIONAL AMPLIFIER "MACROMODEL" SUBCIRCUIT
* "E" IS ENHANCED MODEL
* CREATED USING PARTS RELEASE 4.03 ON 11/1/92 AT 10:00
*
* CONNECTIONS:   NON-INVERTING INPUT
*                | INVERTING INPUT
*                | | POSITIVE POWER SUPPLY
*                | | | NEGATIVE POWER SUPPLY
*                | | | | OUTPUT
*                | | | | |
.SUBCKT A2_111E  1 2 3 4 5
*
C1   11 12 1.443E-12
C2    6  7 5.000E-12
DC    5 53 DX
DE   54  5 DX
DLP  90 91 DX
DLN  92 90 DX
DP    4  3 DX
EGND 99  0 POLY(2) (3,0) (4,0) 0 .5 .5
FB    7 99 POLY(5) VB VC VE VLP VLN 0 2.653E3 -3E3 3E3 3E3 -3E3
GA    6  0 11 12 628.3E-6
GCM   0  6 10 99 6.283E-6
ISS   3 10 DC 250.0E-6
HLIM 90  0 VLIM 1K
J1   11  2 10 JX
J2   12  1 10 JX
R2    6  9 100.0E3
RD1   4 11 1.592E3
RD2   4 12 1.592E3
RO1   8  5 60
RO2   7 99 60
*  RP    3  4 37.50E3
RSS  10 99 800.0E3
VB    9  0 DC 0
VC    3 53 DC 2
VE   54  4 DC 1
VLIM  7  8 DC 0
VLP  91  0 DC 60
VLN   0 92 DC 60
****************************
* A2_111 "E" - ENHANCEMENTS
****************************
* OUTPUT SUPPLY MIRROR
FQ3   0 20 POLY(1) VLIM 0  1
DQ1  20 21 DX
DQ2  22 20 DX
VQ1  21  0 0
VQ2  22  0 0
FQ1   3  0 POLY(1) VQ1  4.16E-4  1
FQ2   0  4 POLY(1) VQ2  4.16E-4 -1
* QUIESCIENT CURRENT
RQ    3  4  2.25E5
* DIFF INPUT CAPACITANCE
CDIF  1  2  1.0E-12
* COMMON MODE INPUT CAPACITANCE
C1CM  1  99 1.0E-12
C2CM  2  99 1.0E-12
*
.MODEL DX D(IS=800.0E-18)
.MODEL JX PJF(IS=5.000E-12 BETA=789.5E-6 VTO=-1)
.ENDS
*
* A3_111E OPERATIONAL AMPLIFIER "MACROMODEL" SUBCIRCUIT
* "E" IS ENHANCED MODEL
* CREATED USING PARTS RELEASE 4.03 ON 11/1/92 AT 10:00
*
* CONNECTIONS:   NON-INVERTING INPUT
*                | INVERTING INPUT
*                | | POSITIVE POWER SUPPLY
*                | | | NEGATIVE POWER SUPPLY
*                | | | | OUTPUT
*                | | | | |
.SUBCKT A3_111E  1 2 3 4 5
*
C1   11 12 7.151E-12
C2    6  7 12.00E-12
DC    5 53 DX
DE   54  5 DX
DLP  90 91 DX
DLN  92 90 DX
DP    4  3 DX
EGND 99  0 POLY(2) (3,0) (4,0) 0 .5 .5
FB    7 99 POLY(5) VB VC VE VLP VLN 0 27.96E6 -30E6 30E6 30E6 -30E6
GA    6  0 11 12 377.0E-6
GCM   0  6 10 99 1.889E-9
ISS   3 10 DC 240.0E-6
HLIM 90  0 VLIM 1K
J1   11  2 10 JX
J2   12  1 10 JX
R2    6  9 100.0E3
RD1   4 11 2.653E3
RD2   4 12 2.653E3
RO1   8  5 30
RO2   7 99 30
*  RP    3  4 37.50E3
RSSS  10 99 833.3E3
VB    9  0 DC 0
VC    3 53 DC 2.300
VE   54  4 DC 2.300
VLIM  7  8 DC 0
VLP  91  0 DC 25
VLN   0 92 DC 25
****************************
* A3_111 "E" - ENHANCEMENTS
****************************
* OUTPUT SUPPLY MIRROR
FQ3   0 20 POLY(1) VLIM 0  1
DQ1  20 21 DX
DQ2  22 20 DX
VQ1  21  0 0
VQ2  22  0 0
FQ1   3  0 POLY(1) VQ1  4.264E-4  1
FQ2   0  4 POLY(1) VQ2  4.264E-4 -1
* QUIESCIENT CURRENT
RQ    3  4  2.25E5
* DIFF INPUT CAPACITANCE
CDIF  1  2  1.0E-12
* COMMON MODE INPUT CAPACITANCE
C1CM  1  99 1.0E-12
C2CM  2  99 1.0E-12
*
.MODEL DX D(IS=800.0E-18)
.MODEL JX PJF(IS=5.000E-12 BETA=296.0E-6 VTO=-1)
.ENDS
*$
**************************************************************************
* INA111Z = A1_111Z + A2_111Z + A3_111Z OP AMPS + PRECISION RESISTOR NETWORK
* "Z" IS ENHANCED MODEL
* CREATED ON 12/1/92 AT 10:00 HB
* REV.A
* REV.B  13 June 97 NPA: Changed "E" to "Z" to correct run error
* REV.C  18 JUNE 97 NPA: MOVED LEGAL DISCLAIMER TO BEGINNING OF FILE
*
* INA111Z SUB-CIRCUIT
* CONNECTIONS:          NON-INVERTING INPUT
*                       |   INVERTING INPUT
*                       |   |   POSITIVE POWER SUPPLY
*                       |   |   |   NEGATIVE POWER SUPPLY
*                       |   |   |   |   OUTPUT
*                       |   |   |   |   |   REFERENCE
*                       |   |   |   |   |   |   GAIN SENSE 1
*                       |   |   |   |   |   |   |   GAIN SENSE 2
*                       |   |   |   |   |   |   |   |
.SUBCKT INA111Z/BB      1   2   3   4   5   8   9  10
*
* A1_111Z SUB-CIRCUIT
* CONNECTIONS:          NON-INVERTING INPUT
*                       |   INVERTING INPUT
*                       |   |   POSITIVE POWER SUPPLY
*                       |   |   |   NEGATIVE POWER SUPPLY
*                       |   |   |   |   OUTPUT
*                       |   |   |   |   |
X1                     15  17   3   4  11   A1_111Z
*
* A2_111Z SUB-CIRCUIT
* CONNECTIONS:          NON-INVERTING INPUT
*                       |   INVERTING INPUT
*                       |   |   POSITIVE POWER SUPPLY
*                       |   |   |   NEGATIVE POWER SUPPLY
*                       |   |   |   |   OUTPUT
*                       |   |   |   |   |
X2                     15  16   3   4  12   A2_111Z
*
* A3_111Z SUB-CIRCUIT
* CONNECTIONS:          NON-INVERTING INPUT
*                       |   INVERTING INPUT
*                       |   |   POSITIVE POWER SUPPLY
*                       |   |   |   NEGATIVE POWER SUPPLY
*                       |   |   |   |   OUTPUT
*                       |   |   |   |   |
X3                     14  13   3   4   5   A3_111Z
*
R1    11  13   10.0000E3
R3    12  14   10.0000E3
R2    13   5    9.9993E3
R4    14   8   10.0000E3
C2    13   5    6.0000E-12
C4    14   8    5.0000E-12
R1FB   9  11   25.0000E3
R2FB  10  12   25.0000E3
CC1   17  11    5.0000E-12
CC2   16  12    5.5000E-12
RCE   17   9    400E6
I1     3  16  DC  50.00E-6
I2     3  17  DC  50.00E-6
I3    10   4  DC  50.00E-6
I4     9   4  DC  50.00E-6
I5     3  21  DC 200.00E-6
I6     3  22  DC 200.00E-6
CG1    9   0   13.5000E-12
CG2   10   0   12.0000E-12
D1    17  15       DX
D2    16  15       DX
Q1    16  21   10  QX
Q2    17  22    9  QX
J1     4   1   21  JX
J2     4   2   22  JX
V1     3  15  DC  3.000
C1CM   1   0    1.0E-12
C2CM   2   0    1.0E-12
CDIF   1   2    6.0E-12
*
.MODEL DX D(IS=1.0E-24)
.MODEL QX NPN(IS=800.0E-18 BF=500)
.MODEL JX PJF(IS=10.00E-12 BETA=500.0E-6 VTO=-1)
.ENDS
*
* A1_111Z OPERATIONAL AMPLIFIER "MACROMODEL" SUBCIRCUIT
* "Z" IS ENHANCED MODEL
* CREATED USING PARTS RELEASE 4.03 ON 11/1/92 AT 10:00
*
* CONNECTIONS:   NON-INVERTING INPUT
*                | INVERTING INPUT
*                | | POSITIVE POWER SUPPLY
*                | | | NEGATIVE POWER SUPPLY
*                | | | | OUTPUT
*                | | | | |
.SUBCKT A1_111Z  1 2 3 4 5
*
C1   11 12 1.443E-12
C2    6  7 5.000E-12
DC    5 53 DX
DE   54  5 DX
DLP  90 91 DX
DLN  92 90 DX
DP    4  3 DX
EGND 99  0 POLY(2) (3,0) (4,0) 0 .5 .5
FB    7 99 POLY(5) VB VC VE VLP VLN 0 2.653E3 -3E3 3E3 3E3 -3E3
GA    6  0 11 12 628.3E-6
GCM   0  6 10 99 6.283E-6
ISS   3 10 DC 250.0E-6
HLIM 90  0 VLIM 1E3
J1   11  2 10 JX
J2   12  1 10 JX
R2    6  9 100.0E3
RD1   4 11 1.592E3
RD2   4 12 1.592E3
RO1   8  5 60
RO2   7 99 60
*  RP    3  4 37.50E3
RSS  10 99 800.0E3
VB    9  0 DC 0
VC    3 53 DC 2
VE   54  4 DC 1
VLIM  7  8 DC 0
VLP  91  0 DC 60
VLN   0 92 DC 60
****************************
* A1_111 "Z" - ENHANCEMENTS
****************************
* OUTPUT SUPPLY MIRROR
FQ3   0 20 POLY(1) VLIM 0  1
DQ1  20 21 DX
DQ2  22 20 DX
VQ1  21  0 0
VQ2  22  0 0
FQ1   3  0 POLY(1) VQ1  4.16E-4  1
FQ2   0  4 POLY(1) VQ2  4.16E-4 -1
* QUIESCIENT CURRENT
RQ    3  4  2.25E5
* DIFF INPUT CAPACITANCE
CDIF  1  2  1.0E-12
* COMMON MODE INPUT CAPACITANCE
C1CM  1  99 1.0E-12
C2CM  2  99 1.0E-12
*
.MODEL DX D(IS=800.0E-18)
.MODEL JX PJF(IS=5.000E-12 BETA=789.5E-6 VTO=-1)
.ENDS
*
* A2_111Z OPERATIONAL AMPLIFIER "MACROMODEL" SUBCIRCUIT
* "Z" IS ENHANCED MODEL