* .... changes for LTspice, HS
* 2 MOS parameter lines removed 
*+ DW =-0.18000E-06 DL =-0.72500E-06
*+ XQC = 1
*
*Capacitor C_C1 changed (220u -> 2200u) to solve a glitch problem with VCC=12V
*C_C1         VCC N0Zero  220uF  
*
* Simplified ixys_74ACTxx models added
*
* Input current on ENA, ENB, iNA and INB reduced from some mA to uA
*
* .... end changes

* PSpice Model Editor - Version 9.2.1
*$
*.SUBCKT IXDD404 ENA INA GND INB ENB OUTA VCC OUTB
*
* .... Input current reduced, HS
.SUBCKT IXDD404 ENA1 INA1 GND INB1 ENB1 OUTA VCC OUTB
RENA1 ENA1 GND 1e6
RENB1 ENB1 GND 1e6
GENA1 GND ENA ENA1 GND 1
GENB1 GND ENB ENB1 GND 1
RENA2 ENA GND 1
RENB2 ENB GND 1
RINA1 INA1 GND 1e6
RINB1 INB1 GND 1e6
GINA1 GND INA INA1 GND 1
GINB1 GND INB INB1 GND 1
RINA2 INA GND 1
RINB2 INB GND 1
* .... end 
*
Q_Q5         N209276 N03676 N0Zero BC107A 
R_R56         VCC N350154  5.0K  
R_R63         GND N0Zero  0.0001  
D_D7         N352588 VCC D1N4376 
C_C5         N02728 N0Zero  1uF  
R_R25         N242307 VCC  10K  
X_U11A         ANT N350162 VEE N0Zero ixys_74ACT04 PARAMS:
+ IO_LEVEL=0 MNTYMXDLY=0
R_R9         N02728 N0Zero  10k  
X_U13A         N350188 ANT VEE N0Zero ixys_74ACT04 PARAMS:
+ IO_LEVEL=0 MNTYMXDLY=0
C_C3         VEE N0Zero  100uF  
R_R42         INB N350188  100  
R_R24         N0Zero TP  10K  
R_R26         N0Zero N242307  724  
X_U18A         N380531 N380531 N380891 VSS N0Zero ixys_74ACT08 PARAMS:
+ IO_LEVEL=0 MNTYMXDLY=0
Q_Q11         N350668 N350872 N0Zero BC107A 
R_R20         N0Zero HEM  10k  
X_U15A         N350364 N350926 N350566 VEE N0Zero ixys_74ACT00 PARAMS:
+ IO_LEVEL=0 MNTYMXDLY=0
M_Q2         N04428 N209276 N0Zero N0Zero MNMOS           
R_R18         N01509 N0Zero  10k  
X_U14A         N350364 N350158 VEE N0Zero ixys_74ACT04 PARAMS:
+ IO_LEVEL=0 MNTYMXDLY=0
R_R69         N0Zero N380881  100k  
R_R61         OUTB N0Zero  10k  
X_U4         VCC VEE N0Zero ixys_LM7805C
X_U6A         N336660 N336660 N295639 VEE N0Zero ixys_74ACT08 PARAMS:
+ IO_LEVEL=0 MNTYMXDLY=0
D_D11         N0Zero N350364 BZ-056 
R_R12         OUTA N0Zero  10k  
R_R17         N82692 N0Zero  10k  
R_R34         GND N0Zero  0.0001  
R_R60         N351522 OUTB  1  
R_R16         INA N82692  100  
R_R54         N352930 N0Zero  10k  
R_R71         N0Zero N408181  10k  
R_R58         VCC N350350  10K  
M_Q1         N04213 N209203 N0Zero N0Zero MNMOS           
R_R57         VCC N350668  5.0K  
C_C6         VSS N0Zero  47uf  
R_R32         N0Zero ANT  10k  
M_Q3         N104168 N04428 VCC VCC MPFET     
R_R40         N0Zero N350162  10k  
R_R1         VCC N04213  10K  
R_R70         N0Zero TEST  1k  
D_D8         N0Zero N352588 D1N4376 
X_U22A         N295262 N295262 TEST VEE N0Zero ixys_74ACT00 PARAMS:
+ IO_LEVEL=0 MNTYMXDLY=0
R_R15         N161018 N0Zero  10k  
M_Q8         N350170 N350668 N0Zero N0Zero MNMOS           
R_R50         N350396 N0Zero  10k  
R_R38         N260557 ENA  10k  
R_R62         GND N0Zero  0.0001  
X_U9A         N02728 N01509 N03600 VEE N0Zero ixys_74ACT00 PARAMS:
+ IO_LEVEL=0 MNTYMXDLY=0
R_R51         N350158 N0Zero  10k  
X_U2A         N260557 N260557 N259753 VSS N0Zero ixys_74ACT08 PARAMS:
+ IO_LEVEL=0 MNTYMXDLY=0
R_R2         VCC N04428  10K  
C_C2         N0Zero VCC  0.1uF  
R_R48         N350364 N0Zero  10k  
D_D6         N0Zero N02728 BZ-056 
Q_Q12         N350154 N352930 N0Zero BC107A 
R_R43         N350188 N0Zero  10k  
C_C4         VCC N0Zero  100uF  
R_R39         N0Zero N260557  2k  
X_U25A         N408181 N408181 HEM VEE N0Zero ixys_74ACT00 PARAMS:
+ IO_LEVEL=0 MNTYMXDLY=0
R_R45         HEM N350926  0.0001  
R_R3         N02959 N03030  10  
R_R35         N0Zero VT  10k  
X_U24A         N349702 N349702 N408181 VEE N0Zero ixys_74ACT00 PARAMS:
+ IO_LEVEL=0 MNTYMXDLY=0
D_D1         N82834 VCC D1N4376 
D_D9         N352438 VCC D1N4376 
D_D5         N0Zero VSS BZ-056 
R_R68         HENB N380881  10  
R_R46         N350364 N0Zero  10k  
M_Q9         N351522 N350170 VCC VCC MPFET      
X_U10A         N01509 N161018 N02959 VEE N0Zero ixys_74ACT02 PARAMS:
+ IO_LEVEL=0 MNTYMXDLY=0
R_R55         N350872 N0Zero  10k  
R_R65         N380531 ENB  10k  
R_R19         N0Zero N295262  10k  
R_R22         VCC N209276  5.0K  
R_R5         N03600 N03676  10  
X_U16A         N350926 N350158 N350396 VEE N0Zero ixys_74ACT02 PARAMS:
+ IO_LEVEL=0 MNTYMXDLY=0
R_R49         N350566 N0Zero  10k  
M_Q7         N350350 N350154 N0Zero N0Zero MNMOS           
D_D10         N0Zero N352438 D1N4376 
R_R6         N03676 N0Zero  10k  
R_R7         N03600 N0Zero  10k  
R_R13         HENABLE N02728  100  
D_D3         N02182 VCC D1N4376 
R_R41         N0Zero N349702  10k  
X_U5A         TP N336660 VEE N0Zero ixys_74ACT04 PARAMS:
+ IO_LEVEL=0 MNTYMXDLY=0
X_U1A         N242307 VT VSS N0Zero ixys_74ACT14 PARAMS:
+ IO_LEVEL=0 MNTYMXDLY=0
R_R23         VCC N209203  5.0K  
R_R10         N02728 N0Zero  10k  
X_U7A         N82692 TP VEE N0Zero ixys_74ACT04 PARAMS:
+ IO_LEVEL=0 MNTYMXDLY=0
R_R66         N0Zero N380531  2k  
R_R33         GND N0Zero  0.0001  
R_R27         N0Zero N336660  10k  
X_U3A         VT N259753 HENABLE VSS N0Zero ixys_74ACT08 PARAMS:
+ IO_LEVEL=0 MNTYMXDLY=0
R_R37         N0Zero TP  10k  
R_R53         N350396 N352930  10  
Q_Q6         N209203 N03030 N0Zero BC107A 
R_R4         N03030 N0Zero  10k  
R_R31         VCC VSS  100  
R_R21         TEST N01509  0.0001  
R_R36         N0Zero N259753  10k  
D_D2         N0Zero N82834 D1N4376 
X_U12A         N350162 N350162 N349702 VEE N0Zero ixys_74ACT08 PARAMS:
+ IO_LEVEL=0 MNTYMXDLY=0
M_Q4         N104168 N04213 N0Zero N0Zero MNFET   
R_R11         N104168 OUTA  1  
R_R29         HENABLE N242974  10  
R_R28         N0Zero N295639  10k  
X_U8A         N02728 N161018 VEE N0Zero ixys_74ACT04 PARAMS:
+ IO_LEVEL=0 MNTYMXDLY=0
R_R52         N350566 N350872  10  
R_R47         N350926 N0Zero  10k  
R_R59         VCC N350170  10K  
D_D4         N0Zero N02182 D1N4376 
C_C7         N350364 N0Zero  1uF  
M_Q10         N351522 N350350 N0Zero N0Zero MNFET     
R_R67         N0Zero N380891  10k  
X_U17A         VT N380891 HENB VSS N0Zero ixys_74ACT08 PARAMS:
+ IO_LEVEL=0 MNTYMXDLY=0
R_R64         HENB N350364  100  
R_R8         N02959 N0Zero  10k  
C_C1         VCC N0Zero  220uF  
X_U23A         N295639 N295639 N295262 VEE N0Zero ixys_74ACT00 PARAMS:
+ IO_LEVEL=0 MNTYMXDLY=0
R_R30         N0Zero N242974  100k  
R_R44         N0Zero ANT  10K
.MODEL MPFET PMOS(LEVEL=3 W=4e-3 L=1.1e-6)
.MODEL MNFET NMOS(LEVEL=3 W=4E-3 L=1.1E-6)
.MODEL MNMOS NMOS
+LEVEL=3 
+W=4E-6 
+L=2E-6 
+ NSS = 0.00000E+00 VTO = 6.30000E-01 TOX = 1.90000E-08
+ XJ = 1.66632E-07 LD = 0.04000E-06 RSH = 6.40359E+02
+ NSUB = 1.82429E+16 NFS = 1.26963E+11 UO = 5.95254E+02
+ VMAX = 1.86907E+05 DELTA = 8.22502E-01 THETA = 5.77858E-02
+ ETA = 2.19310E-02 KAPPA = 2.60564E-01
+ CGSO = 7.263E-11 CGDO = 7.263E-11 CGBO = 1.11890E-10
+ CJ = 2.59E-04 CJSW = 2E-10 PB = 0.811
+ MJ = 0.36 MJSW = 0.31 TPG = 1
*+ DW =-0.18000E-06 DL =-0.72500E-06
*+ XQC = 1
.MODEL BC107A NPN
.MODEL BZ-056 D RS=1.000E-3 CJO=1.000E-12 M=.3333 VJ=.75 ISR=7.539E-6 BV=5.009
+ IBV=43.11E-3 TT=144.3E-9
.MODEL D1N4376 D  
.ENDS
*$

 *  source IXDD_HEMANT

*$
.SUBCKT IXDD414 VCC IN EN GND VCC OUT OUT1 GND   
ROUT1 OUT OUT1 1m
Q_Q5         N209276 N03676 N0Zero BC107A 
C_C5         N02728 N0Zero  1uF  
R_R25         N242307 EN  10K  
R_R9         N02728 N0Zero  10k  
C_C3         VEE N0Zero  100uF  
R_R24         N0Zero TP  10K  
R_R26         N0Zero N242307  724  
M_Q2         N04428 N209276 N0Zero N0Zero MNMOS           
R_R18         N01509 N0Zero  10k  
X_U4         VCC VEE N0Zero ixys_LM7805C
X_U6A         N336660 N336660 N295639 VEE N0Zero ixys_74ACT08 PARAMS:
+ IO_LEVEL=0 MNTYMXDLY=0
R_R12         OUT N0Zero  10k  
R_R17         N82692 N0Zero  10k  
R_R34         GND N0Zero  0.0001  
R_R16         IN N82692  100  
M_Q1         N04213 N209203 N0Zero N0Zero MNMOS           
C_C6         VSS N0Zero  47uf  
M_Q3         N104168 N04428 VCC VCC MPFET           
R_R1         VCC N04213  10K  
R_R70         N0Zero TEST  1k  
X_U22A         N295262 N295262 TEST VEE N0Zero ixys_74ACT00 PARAMS:
+ IO_LEVEL=0 MNTYMXDLY=0
R_R15         N161018 N0Zero  10k  
R_R38         N260557 VCC  10k  
X_U9A         N02728 N01509 N03600 VEE N0Zero ixys_74ACT00 PARAMS:
+ IO_LEVEL=0 MNTYMXDLY=0
X_U2A         N260557 N260557 N259753 VSS N0Zero ixys_74ACT08 PARAMS:
+ IO_LEVEL=0 MNTYMXDLY=0
R_R2         VCC N04428  10K  
C_C2         N0Zero VCC  0.1uF  
D_D6         N0Zero N02728 BZ-056 
C_C4         VCC N0Zero  100uF  
R_R39         N0Zero N260557  2k  
R_R3         N02959 N03030  5  
C_C7         N02959 N03030  1nf
R_R35         N0Zero VT  10k  
D_D1         N82834 VCC D1N4376 
D_D5         N0Zero VSS BZ-056 
X_U10A         N01509 N161018 N02959 VEE N0Zero ixys_74ACT02 PARAMS:
+ IO_LEVEL=0 MNTYMXDLY=0
R_R19         N0Zero N295262  10k  
R_R22         VCC N209276  5.0K  
R_R5         N03600 N03676  5
C_C8         N03600 N03676 1nf
R_R6         N03676 N0Zero  10k  
R_R13         HENABLE N02728  100  
D_D3         N02182 VCC D1N4376 
R_R7         N03600 N0Zero  10k  
X_U5A         TP N336660 VEE N0Zero ixys_74ACT04 PARAMS:
+ IO_LEVEL=0 MNTYMXDLY=0
X_U1A         N242307 VT VSS N0Zero ixys_74ACT14 PARAMS:
+ IO_LEVEL=0 MNTYMXDLY=0
R_R23         VCC N209203  5.0K  
R_R10         N02728 N0Zero  10k  
X_U7A         N82692 TP VEE N0Zero ixys_74ACT04 PARAMS:
+ IO_LEVEL=0 MNTYMXDLY=0
R_R33         GND N0Zero  0.0001  
R_R27         N0Zero N336660  10k  
X_U3A         VT N259753 HENABLE VSS N0Zero ixys_74ACT08 PARAMS:
+ IO_LEVEL=0 MNTYMXDLY=0
R_R37         N0Zero TP  10k  
Q_Q6         N209203 N03030 N0Zero BC107A 
R_R21         TEST N01509  0.0001  
R_R31         VCC VSS  100  
R_R4         N03030 N0Zero  10k  
R_R36         N0Zero N259753  10k  
D_D2         N0Zero N82834 D1N4376 
M_Q4         N104168 N04213 N0Zero N0Zero MNFET           
R_R11         N104168 OUT  0.01
R_R29         HENABLE N242974  10  
R_R28         N0Zero N295639  10k  
X_U8A         N02728 N161018 VEE N0Zero ixys_74ACT04 PARAMS:
+ IO_LEVEL=0 MNTYMXDLY=0
D_D4         N0Zero N02182 D1N4376 
R_R8         N02959 N0Zero  10k  
C_C1         VCC N0Zero  220uF  
X_U23A         N295639 N295639 N295262 VEE N0Zero ixys_74ACT00 PARAMS:
+ IO_LEVEL=0 MNTYMXDLY=0
R_R30         N0Zero N242974  100k
.MODEL MNMOS NMOS
+LEVEL=3 
+W=4E-6 
+L=2E-6 
+ NSS = 0.00000E+00 VTO = 6.30000E-01 TOX = 1.90000E-08
+ XJ = 1.66632E-07 LD = 0.04000E-06 RSH = 6.40359E+02
+ NSUB = 1.82429E+16 NFS = 1.26963E+11 UO = 5.95254E+02
+ VMAX = 1.86907E+05 DELTA = 8.22502E-01 THETA = 5.77858E-02
+ ETA = 2.19310E-02 KAPPA = 2.60564E-01
+ CGSO = 7.263E-11 CGDO = 7.263E-11 CGBO = 1.11890E-10
+ CJ = 2.59E-04 CJSW = 2E-10 PB = 0.811
+ MJ = 0.36 MJSW = 0.31 TPG = 1
*+ DW =-0.18000E-06 DL =-0.72500E-06
*+ XQC = 1
.MODEL MPFET PMOS(LEVEL=3 W=4e-3 L=0.01e-006)
.MODEL MNFET NMOS(LEVEL=3 W=4E-3 L=0.01e-006)
.MODEL BC107A NPN
.MODEL BZ-056 D RS=1.000E-3 CJO=1.000E-12 M=.3333 VJ=.75 ISR=7.539E-6 BV=5.009
+ IBV=43.11E-3 TT=144.3E-9
.MODEL D1N4376 D 
.ENDS
*$



.SUBCKT IXDD409 VCC IN EN GND VCC OUT OUT1 GND   
ROUT1 OUT OUT1 1m
Q_Q5         N209276 N03676 N0Zero BC107A 
C_C5         N02728 N0Zero  1uF  
R_R25         N242307 EN  10K  
R_R9         N02728 N0Zero  10k  
C_C3         VEE N0Zero  100uF  
R_R24         N0Zero TP  10K  
R_R26         N0Zero N242307  724  
M_Q2         N04428 N209276 N0Zero N0Zero MNMOS           
R_R18         N01509 N0Zero  10k  
X_U4         VCC VEE N0Zero ixys_LM7805C
X_U6A         N336660 N336660 N295639 VEE N0Zero ixys_74ACT08 PARAMS:
+ IO_LEVEL=0 MNTYMXDLY=0
R_R12         OUT N0Zero  10k  
R_R17         N82692 N0Zero  10k  
R_R34         GND N0Zero  0.0001  
R_R16         IN N82692  100  
M_Q1         N04213 N209203 N0Zero N0Zero MNMOS           
C_C6         VSS N0Zero  47uf  
M_Q3         N104168 N04428 VCC VCC MPFET           
R_R1         VCC N04213  10K  
R_R70         N0Zero TEST  1k  
X_U22A         N295262 N295262 TEST VEE N0Zero ixys_74ACT00 PARAMS:
+ IO_LEVEL=0 MNTYMXDLY=0
R_R15         N161018 N0Zero  10k  
R_R38         N260557 VCC  10k  
X_U9A         N02728 N01509 N03600 VEE N0Zero ixys_74ACT00 PARAMS:
+ IO_LEVEL=0 MNTYMXDLY=0
X_U2A         N260557 N260557 N259753 VSS N0Zero ixys_74ACT08 PARAMS:
+ IO_LEVEL=0 MNTYMXDLY=0
R_R2         VCC N04428  10K  
C_C2         N0Zero VCC  0.1uF  
D_D6         N0Zero N02728 BZ-056 
C_C4         VCC N0Zero  100uF  
R_R39         N0Zero N260557  2k  
R_R3         N02959 N03030  10  
R_R35         N0Zero VT  10k  
D_D1         N82834 VCC D1N4376 
D_D5         N0Zero VSS BZ-056 
X_U10A         N01509 N161018 N02959 VEE N0Zero ixys_74ACT02 PARAMS:
+ IO_LEVEL=0 MNTYMXDLY=0
R_R19         N0Zero N295262  10k  
R_R22         VCC N209276  5.0K  
R_R5         N03600 N03676  10  
R_R6         N03676 N0Zero  10k  
R_R13         HENABLE N02728  100  
D_D3         N02182 VCC D1N4376 
R_R7         N03600 N0Zero  10k  
X_U5A         TP N336660 VEE N0Zero ixys_74ACT04 PARAMS:
+ IO_LEVEL=0 MNTYMXDLY=0
X_U1A         N242307 VT VSS N0Zero ixys_74ACT14 PARAMS:
+ IO_LEVEL=0 MNTYMXDLY=0
R_R23         VCC N209203  5.0K  
R_R10         N02728 N0Zero  10k  
X_U7A         N82692 TP VEE N0Zero ixys_74ACT04 PARAMS:
+ IO_LEVEL=0 MNTYMXDLY=0
R_R33         GND N0Zero  0.0001  
R_R27         N0Zero N336660  10k  
X_U3A         VT N259753 HENABLE VSS N0Zero ixys_74ACT08 PARAMS:
+ IO_LEVEL=0 MNTYMXDLY=0
R_R37         N0Zero TP  10k  
Q_Q6         N209203 N03030 N0Zero BC107A 
R_R21         TEST N01509  0.0001  
R_R31         VCC VSS  100  
R_R4         N03030 N0Zero  10k  
R_R36         N0Zero N259753  10k  
D_D2         N0Zero N82834 D1N4376 
M_Q4         N104168 N04213 N0Zero N0Zero MNFET           
R_R11         N104168 OUT  1  
R_R29         HENABLE N242974  10  
R_R28         N0Zero N295639  10k  
X_U8A         N02728 N161018 VEE N0Zero ixys_74ACT04 PARAMS:
+ IO_LEVEL=0 MNTYMXDLY=0
D_D4         N0Zero N02182 D1N4376 
R_R8         N02959 N0Zero  10k  
C_C1         VCC N0Zero  220uF  
X_U23A         N295639 N295639 N295262 VEE N0Zero ixys_74ACT00 PARAMS:
+ IO_LEVEL=0 MNTYMXDLY=0
R_R30         N0Zero N242974  100k
.MODEL MNMOS NMOS
+LEVEL=3 
+W=4E-6 
+L=2E-6 
+ NSS = 0.00000E+00 VTO = 6.30000E-01 TOX = 1.90000E-08
+ XJ = 1.66632E-07 LD = 0.04000E-06 RSH = 6.40359E+02
+ NSUB = 1.82429E+16 NFS = 1.26963E+11 UO = 5.95254E+02
+ VMAX = 1.86907E+05 DELTA = 8.22502E-01 THETA = 5.77858E-02
+ ETA = 2.19310E-02 KAPPA = 2.60564E-01
+ CGSO = 7.263E-11 CGDO = 7.263E-11 CGBO = 1.11890E-10
+ CJ = 2.59E-04 CJSW = 2E-10 PB = 0.811
+ MJ = 0.36 MJSW = 0.31 TPG = 1
*+ DW =-0.18000E-06 DL =-0.72500E-06
*+ XQC = 1
.MODEL MPFET PMOS(LEVEL=3 W=4e-3 L=0.01e-6)
.MODEL MNFET NMOS(LEVEL=3 W=4E-3 L=0.01E-6)
.MODEL BC107A NPN
.MODEL BZ-056 D RS=1.000E-3 CJO=1.000E-12 M=.3333 VJ=.75 ISR=7.539E-6 BV=5.009
+ IBV=43.11E-3 TT=144.3E-9
.MODEL D1N4376 D 
.ENDS
*$



*$
.SUBCKT IXDD430YI VCC OUT GND IN EN
R_R11         N494687 N0Zero  10k  
R_R3         N647678 N0Zero  10K  
X_U7A         N383201 N383201 N494687 VSS N0Zero ixys_74ACT00 PARAMS:
+ IO_LEVEL=0 MNTYMXDLY=0
R_R5         VCC N242309  10K  
X_U6A         N530707 N383201 VSS N0Zero ixys_74ACT14 PARAMS:
+ IO_LEVEL=0 MNTYMXDLY=0
R_R20         CON1B N0Zero  10k  
R_R12         ENABLE N0Zero  100k  
R_R4         UV N0Zero  10k  
R_R15         CON1 N0Zero  10K  
X_U8A         N251978 UV N494687 ENABLE VSS N0Zero ixys_74ACT11 PARAMS:
+ IO_LEVEL=0 MNTYMXDLY=0
R_R6         N242309 N0Zero  510  
X_U11A         N929952 CON1A VSS N0Zero ixys_74ACT14 PARAMS:
+ IO_LEVEL=0 MNTYMXDLY=0
X_U4A         N647678 UV VSS N0Zero ixys_74ACT04 PARAMS:
+ IO_LEVEL=0 MNTYMXDLY=0
X_U14A         N139106 N404483 N02959 VSS N0Zero ixys_74ACT02 PARAMS:
+ IO_LEVEL=0 MNTYMXDLY=0
X_U13A         CON1B N139106 N134432 VSS N0Zero ixys_74ACT00 PARAMS:
+ IO_LEVEL=0 MNTYMXDLY=0
R_R22         N139106 N0Zero  10k  
D_D3         IN VCC D1N4376 
C_C4         N538279 IN  5p  
R_R2         N647531 N0Zero  2.502k  
R_R14         N538279 N0Zero  4000  
R_R36         OUT N0Zero  100K  
X_U10A         N336660 N929952 VSS N0Zero ixys_74ACT04 PARAMS:
+ IO_LEVEL=0 MNTYMXDLY=0
R_R13         IN N538279  4160  
X_U3A         N647531 N647678 VSS N0Zero ixys_74ACT14 PARAMS:
+ IO_LEVEL=0 MNTYMXDLY=0
D_D4         N0Zero IN D1N4376 
R_R41         N0Zero N336660  10k  
R_R1         VCC N647531  10k  
M_Q5         N104168 N04428 VCC VCC MPFET           
R_R33         VCC N04213  5.6K  
M_Q4         N04213 N681317 N0Zero N0Zero MNMOS           
R_R18         N404483 N0Zero  10k  
R_R7         EN N530707  0.5K  
X_U15A         N134432 N02959 N665658 VSS N0Zero ixys_74ACT32 PARAMS:
+ IO_LEVEL=0 MNTYMXDLY=0
R_R24         N665658 N0Zero  20k  
R_R34         VCC N04428  5.6K  
Q_Q2         N681317 N700910 N0Zero FMMT918 
R_R43         N0Zero CON1A  10k  
C_C2         VSS N0Zero  100uF  
C_C1         VCC N0Zero  220uF  
R_R10         N383201 N0Zero  10k  
R_R28         N665691 N0Zero  20k  
R_R29         N665691 N700910  1  
R_R9         N251978 N0Zero  10k  
M_Q3         N04428 N681472 N0Zero N0Zero MNMOS           
X_U2A         CON1 N336660 VSS N0Zero ixys_74ACT14 PARAMS:
+ IO_LEVEL=0 MNTYMXDLY=0
R_R25         N665658 N559550  1  
R_R38         N0Zero GND  0.00001  
X_U16A         N02959 N134432 N665691 VSS N0Zero ixys_74ACT32 PARAMS:
+ IO_LEVEL=0 MNTYMXDLY=0
D_D1         N538279 VSS D1N4376 
R_R42         N0Zero N929952  10k  
R_R26         N559550 N0Zero  10k  
R_R19         ENABLE CON1B  100  
R_R23         N134432 N0Zero  10k  
X_U9A         N538279 CON1 VSS N0Zero ixys_74ACT14 PARAMS:
+ IO_LEVEL=0 MNTYMXDLY=0
X_U5A         N242309 N251978 VSS N0Zero ixys_74ACT14 PARAMS:
+ IO_LEVEL=0 MNTYMXDLY=0
R_R37         N0Zero GND  0.00001  
R_R21         CON1A N139106  0.0001  
R_R30         N700910 N0Zero  10k  
R_R8         N530707 N0Zero  10K  
M_Q6         N104168 N04213 N0Zero N0Zero MNFET           
R_R35         N104168 OUT  0.52
C_C3         VSS N0Zero  0.1u  
X_U12A         CON1B N404483 VSS N0Zero ixys_74ACT04 PARAMS:
+ IO_LEVEL=0 MNTYMXDLY=0
R_R27         N02959 N0Zero  10k  
X_U1         VCC VSS N0Zero ixys_LM7805C
R_R32         VCC N681472  470  
D_D2         N0Zero N538279 D1N4376 
R_R39         N0Zero GND  0.00001  
R_R31         VCC N681317  470  
R_R40         EN VCC  10k  
Q_Q1         N681472 N559550 N0Zero FMMT918 
****
.MODEL D1N4376 D  
.MODEL FMMT918 NPN IS =1.73E-13 BF =200 VAF=90 IKF=8.8E-3 ISE=241E-12 NE =1.701
+BR =3.124 VAR=9.7 NR =.9705 IKR=.02 ISC=8.31E-13 NC =1.112 RB =17 RE =2.13
+RC =30 CJE=2.27E-12 TF =.2E-9 CJC=1.2E-12 TR =1E-9 VJC=.415 MJC=.145
.MODEL MNMOS NMOS
+LEVEL=3 
+W=4E-6
+L=2E-6 
+ NSS = 0.00000E+00 VTO = 6.30000E-01 TOX = 1.90000E-08
+ XJ = 1.66632E-07 LD = 0.04000E-06 RSH = 6.40359E+02
+ NSUB = 1.82429E+16 NFS = 1.26963E+11 UO = 5.95254E+02
+ VMAX = 1.86907E+05 DELTA = 8.22502E-01 THETA = 5.77858E-02
+ ETA = 2.19310E-02 KAPPA = 2.60564E-01
+ CGSO = 7.263E-11 CGDO = 7.263E-11 CGBO = 1.11890E-10
+ CJ = 2.59E-04 CJSW = 2E-10 PB = 0.811
+ MJ = 0.36 MJSW = 0.31 TPG = 1
*+ DW =-0.18000E-06 DL =-0.72500E-06
*+ XQC = 1
.MODEL MNFET NMOS(LEVEL=3 W=100e-3 L=0.0002e-006)
.MODEL MPFET PMOS(LEVEL=3 W=100e-3 L=0.0002e-006)
.ENDS

*$



.subckt ixys_74ACT00 in1 in2 out vcc v00 
B1 out1 v00 V=if( ((V(in1,v00)>1.4)&(V(in2,v00)>1.4)), 0, V(vcc,v00) )
R1 out1 out 10
C1 out v00 200p
.ends ixys_74ACT00

.subckt ixys_74ACT02 in1 in2 out vcc v00 
B1 out1 v00 V=if( ((V(in1,v00)>1.4)|(V(in2,v00)>1.4)), 0, V(vcc,v00) ) 
R1 out1 out 10
C1 out v00 200p
.ends ixys_74ACT02

.subckt ixys_74ACT04 in1 out vcc v00 
B1 out1 v00 V=if( (V(in1,v00)>1.4), 0, V(vcc,v00) )
R1 out1 out 10
C1 out v00 200p
.ends ixys_74ACT04

.subckt ixys_74ACT08 in1 in2 out vcc v00 
B1 out1 v00 V=if( ((V(in1,v00)>1.4)&(V(in2,v00)>1.4)), V(vcc,v00), 0 )
R1 out1 out 10
C1 out v00 200p
.ends ixys_74ACT08

.subckt ixys_74ACT14 in1 out vcc v00 
B1 out1 v00 V=if( (V(in1,v00)>1.4), 0, V(vcc,v00) )
R1 out1 out 10
C1 out v00 200p
.ends ixys_74ACT14

*** used by IXDD430 only ***
.subckt ixys_74ACT11 in1 in2 in3 out vcc v00 
B1 out1 v00 V=if( ((V(in1,v00)>1.4)&(V(in2,v00)>1.4)&(V(in3,v00)>1.4)), V(vcc,v00), 0 )
R1 out1 out 10
C1 out v00 200p
.ends ixys_74ACT00

*** used by IXDD430 only ***
.subckt ixys_74ACT32 in1 in2 out vcc v00 
B1 out1 v00 V=if( ((V(in1,v00)>1.4)|(V(in2,v00)>1.4)), V(vcc,v00), 0 )
R1 out1 out 10
C1 out v00 200p
.ends ixys_74ACT00

* Model with hysteresis
.subckt ixys_74ACT14x in1 out vcc v00 
E1 e1 v00 in1 v00 1
R1 e1 1 1k
R2 v00 1 2k
R3 1 2 4k
C3 2 v00 1p
R4 2 3 1k
B1 3 v00 V=LIMIT(0, IF( (V(1,v00)>1), (100*(V(1,v00)-1)), 0 ), V(vcc,v00) )
G2 v00 out1 3 v00 -1
RG2 out1 vcc 1
R1 out1 out 10
C1 out v00 200p
.ends ixys_74ACT14

.subckt ixys_LM7805C in out v00
B1 out1 v00 V=LIMIT(0, if( (V(in,v00)>7), 5, (V(in,v00)-2)), 5)
R1 out1 out .1
.ends ixys_LM7805C
