.subckt jumpernew 1 2  p params: status=1
* status=1 => ON
* status=0 => OFF
S1 2 1 p 0 knop off
R1 p 3 1k
v1 3 0 {status} 
.model knop sw ron=1m roff=10G vt=0.5 vh=50m
.ends jumpernew 