* File "LED_models.mod"
*
* TLUV5300 and TLSV5100 are from Vishay semiconductor.
*
.SUBCKT TLUV5300 1 2 3
Dred   1  2  TLSV5100RED
Dgreen  3  2  TLSV5100GREEN
.ENDS

.SUBCKT TLSV5100 1 2 3
Dred   1  2  TLSV5100RED
Dgreen  3  2  TLSV5100GREEN
.ENDS

.MODEL TLSV5100GREEN D(IS=1.7e-20   N=1.8  RS=8  Ikf=2m  Eg=2.4 Cjo=50p Bv=6 Ibv=10u)

.MODEL TLSV5100RED D(IS=2.1e-19   N=1.8  RS=10  Ikf=1.1m Eg=2.3 Cjo=50p Bv=6 Ibv=10u)