.subckt LM2902_AB in+ in- VCC VSS OUT
icc VCC VSS  TBL(0 0 2 180u 100V 185u)
Q1 VSS in- 1 0 Pv
Q2 VSS in+ 2 0 Pv
Q3 4 1 3 0 Ph
Q4 5 2 3 0 Ph
Q5 5 4 VSS 0 N1
Q6 4 4 VSS 0 N1
Q7 VSS 5 6 0 Pv
R1 7 VSS 50k
Q8 8 7 VSS 0 N1
Q9 VCC 6 7 0 N1
I1 VCC 3 TBL(0 0 0.4 6u 100V 6u)
I2 VCC 6 TBL(0 0 0.4 4u 100V 4u)
I3 VCC 8 TBL(0 0 0.4 100u 100V 110u)
Ck 8 5 3p 
I4 OUT VSS TBL(0 0 0.4 50u 100V 50u)
Q10 VCC 8 N001 0 N1
Q11 VCC N001 N002 0 N1
Q12 8 N002 OUT 0 N1
R2 N002 OUT 25
Q13 VSS 8 OUT 0 Ph
.MODEL N1 NPN IS=1e-17 BF=200  TF=0.2NS TR=10NS CJE=0.5PF CJC=0.5PF VAF=50)
.MODEL Pv PNP IS=1e-17 BF=30 RB=20 TF=2NS TR=20NS CJE=1PF CJC=2PF VAF=50
.MODEL Ph PNP IS=1e-17 BF=4 RB=20 TF=20NS TR=20NS CJE=1PF CJC=2PF VAF=50
C1 1 VSS 0.2p
C2 2 VSS 0.2p
C3 3 VCC 0.2p
C4 4 VSS 0.2p
C5 5 VSS 0.2p
C6 6 VCC 0.2p
C7 7 VSS 0.1p
C8 8 VSS 1p
Cout out VSS 2p
Cin- in- Vss 1.5p
Cin+ in+ Vss 1.5p
.ends LM2904_AB
