* Source File: LM2940BlkM1.asc
* Developer: ETech (eetech00@yahoo.com) 
* Created: Feb 19 2016
* Revision: NA
*
* This LM2940 spice behavioural model was tested
* with LTSpice. Temperature is not modelled.
* 
* Texas Instruments
* LM2940 1A Low Dropout Regulators
*
* LM2940 5.0 Volt Regulator
.subckt LM2940_05 IN OUT VGND PARAMS: R15=4.1k
XREG IN OUT VGND LM2940BLK R15={R15}
.ends

* LM2940 8.0 Volt Regulator
.subckt LM2940_08 IN OUT VGND PARAMS: R15=8.2k
XREG IN OUT VGND LM2940BLK R15={R15}
.ends
* LM2940 9.0 Volt Regulator
.subckt LM2940_09 IN OUT VGND PARAMS: R15=9.6k
XREG IN OUT VGND LM2940BLK R15={R15}
.ends
* LM2940 10.0 Volt Regulator
.subckt LM2940_10 IN OUT VGND PARAMS: R15=10.9k
XREG IN OUT VGND LM2940BLK R15={R15}
.ends
* LM2940 12.0 Volt Regulator
.subckt LM2940_12 IN OUT VGND PARAMS: R15=13.7k
XREG IN OUT VGND LM2940BLK R15={R15}
.ends
* LM2940 15.0 Volt Regulator
.subckt LM2940_15 IN OUT VGND PARAMS: R15=17.8k
XREG IN OUT VGND LM2940BLK R15={R15}
.ends

* block symbol definition
.subckt LM2940BLK IN OUT VGND PARAMS: R15=4.1k
Q1 N023 N007 N006 0 PN
Q2 N007 N007 N006 0 PN
Q3 N011 N003 OUT 0 PN
Q4 N023 N023 VGND 0 NP
Q5 N007 N023 N027 0 NP 3
R1 N016 VGND 2.7k
R2 N027 VGND 100
D1 VGND N004 DZ1
J§Q6 N007 VGND VGND JN
Q7 N024 N024 VGND 0 NP
Q8 N022 N024 N028 0 NP 3
R3 N028 VGND 1.8k
Q9 N014 N007 N006 0 PN
R4 N014 N022 19k
R5 N014 N024 6k
Q10 VGND N007 N006 0 PN .3
Q11 N009 N009 VGND 0 NP
Q12 N008 N009 VGND 0 NP 4
Q13 N009 N007 N006 0 PN .5
Q14 N014 N022 VGND 0 NP
Q15 N009 N019 VGND 0 NP
Q16 N006 N014 N018 0 NP
Q17 N001 N004 N006 0 NP
J§Q18 N004 VGND N001 JN
Q19 N004 N001 IN 0 PN
Q20 N001 N001 IN 0 PN 4
R6 N019 N018 3k
R7 N012 N014 15k
R8 N019 VGND 2.4k
Q21 N013 N012 N017 0 NP
Q22 N010 N015 N017 0 NP
C1 N013 N012 20p Rser=0.008
R9 N017 VGND 2.4k
Q23 N013 N010 OUT 0 PN
Q24 N010 N010 OUT 0 PN
Q25 N006 N013 N021 0 NP
Q26 N025 N025 VGND 0 NP
Q27 N020 N025 VGND 0 NP 6
R10 N021 N025 2k
Q28 N008 N008 N006 0 PN .5
Q29 N020 N008 N006 0 PN 2.5
Q30 N002 N020 VGND 0 NP
R11 N016 N015 13k
Q31 N026 N011 VGND 0 NP
R12 N020 N026 50
R13 N011 N026 4k
Q32 N020 N005 VGND 0 NP
Q33 N005 N005 VGND 0 NP 4
Q34 VGND N002 N003 0 PN 70
Q35 N003 N001 IN 0 PN
R14 N003 N002 2k
Q36 N005 N003 IN 0 PN
Q37 OUT N003 IN 0 PN 350
R15 OUT N016 {R15}
C2 N005 N011 4p Rser=0.003
.MODEL JN NJF(BETA=1E-6 VTO=-7)
.MODEL DZ1 D(BV=5.6)
.MODEL NP NPN(EG=1.22 BF=80 RB=100 CCS=2PF TF=.3NS TR=6NS CJE=3PF CJC=2PF VAF=100 IS=0.075E-25 RC=1 RE=1)
.MODEL PN PNP(BF=40 RB=20 TF=1NS TR=20NS CJE=6PF CJC=4PF VAF=100 IS=0.075E-25 RC=1 RE=1)
.ends LM2940Blk
