.Subckt Lm334_AB Vp  Vm R
Q1 5  4  R npn1 
Q2 4  6  Vm npn1
Q3 6  6  R npn1  area =12
Q4 4  5  Vp   pnp1
Q5 6  5  Vp   pnp1
Q6 R  5  Vp  pnp1  area = 12 
C1 4  Vm  50p 
.model npn1  npn bf=100  nf=1.08 is=1f nc=2 isc=100f cjc=1p cje=1p  tf=1n
.model pnp1  pnp bf=5 is=1f nc=2 isc=100f cjc=5p cje=1p tf=10n
.ends Lm334