.subckt LM35 Out
I1 0 N001 1
R0 N001 0 1 tc1=0.01
I2 0 N002 1
R1 N002 0 1 tc1=0.01 TEMP=0
G1 0 Out N001 N002 10
R2 Out 0 0.1
.ends 
