* Developer: ETech (eetech00@yahoo.com)
* Created: Jun 12 2016
* Revision: NA
*
* These TI LM78XX spice models have
* been tested with LTSpice. Temperature is not modeled.
*
* LM7805 5V Positive Voltage Regulator
.subckt LM7805 IN VGND OUT
.param R17=740
XX1 IN VGND OUT lm78xx R17={R17}
.ends LM7805
*
* LM7812 12V Positive Voltage Regulator
.subckt LM7812 IN VGND OUT
.param R17=5.43k
XX1 IN VGND OUT lm78xx R17={R17}
.ends LM7812
*
* LM7815 15V Positive Voltage Regulator
.subckt LM7815 IN VGND OUT
.param R17=7.43k
XX1 IN VGND OUT lm78xx R17={R17}
.ends LM7815
*
* block symbol definitions
.subckt lm78xx IN VGND OUT PARAMS: R17={740}
Q13 15 18 VGND 0 NP 0.1
Q1A 15 10 IN 0 PN 0.1
Q11B 16 10 IN 0 PN 0.1
Q11C 10 10 IN 0 PN 0.1
Q12 IN 16 31 0 NP 0.1
D1 VGND 16 DZ1
R11 31 18 3.4k
R12 18 VGND 200
Q14 15 22 OUT 0 NP 0.1
D2 22 21 DZ1
R13 IN 21 10k
R10 15 30 1k
R14 25 22 230
Q15 IN 15 29 0 NP 0.1
Q16 IN 29 25 0 NP 2.7
R15 29 25 2k
R16 25 OUT 0.3
R17 OUT 11 {R17}
Q6 OUT 11 19 0 NP 0.1
Q1 10 11 12 0 NP 0.1
R1 10 12 30k
R2 12 13 1.9k
R3 13 17 26
Q2 12 13 14 0 NP 0.1
Q3 17 14 VGND 0 NP 0.1
Q4 19 17 20 0 NP 0.1
Q5 23 20 24 0 NP 0.1
R7 19 23 17k
Q7 26 23 27 0 NP 0.1
C1 26 23 20p
Q8 26 27 VGND 0 NP 0.1
R8 27 28 4k
Q9 28 28 VGND 0 NP 0.1
Q10 VGND 26 30 0 PN 0.1
R9 30 26 4k
R18 11 VGND 2.6k
R6 24 VGND 1k
R5 20 VGND 12.1k
R4 14 VGND 1.2k
.MODEL DZ1 D(BV=6.3)
.MODEL NP NPN(EG=1.22 BF=350 RB=100 CCS=2PF TF=.3NS TR=6NS CJE=3PF CJC=2PF VAF=100 IS=1.81110E-15 RC=1 RE=1)
.MODEL PN PNP(BF=175 RB=20 TF=1NS TR=20NS CJE=6PF CJC=4PF VAF=100 IS=1.81110E-15 RC=1 RE=1)
.ends lm78xx