*Rev.a August-2007
*//////////////////////////////////////////////////////////////////////
* (C) National Semiconductor, Corporation.
* Models developed and under copyright by:
* National Semiconductor, Corporation.  
*/////////////////////////////////////////////////////////////////////
* Legal Notice:  
* The model may be copied, and distributed without any modifications;
* however, reselling or licensing the material is illegal.
* We reserve the right to make changes to the model without prior notice. 
* Pspice Models are provided "AS IS, WITH NO WARRANTY OF ANY KIND" 
*////////////////////////////////////////////////////////////////////
* PINOUT ORDER +IN -IN +V -V OUT
* PINOUT ORDER  3   4   6  2  1
.SUBCKT LMH6618 3 4 6 2 1
*//////////////////////////////////////////////////////////////////////
* USE V10 BELOW TO ADJUST OFFSET
V10 14 26 -56.5E-6
*/////////////////////////////////////////////////////////////////////
* MODEL FEATURES INCLUDE OUTPUT SWING, OUTPUT CURRENT THRU
* THE SUPPLY RAILS, OUTPUT CURRENT LIMIT, OPEN LOOP GAIN
* AND PHASE WITH RL AND CL EFFECTS, SLEW RATE, COMMON MODE
* REJECTION WITH FREQ EFFECTS, POWER SUPPLY REJECTION WITH
* FREQ EFFECTS, INPUT VOLTAGE NOISE WITH 1/F, INPUT CURRENT
* NOISE WITH 1/F, INPUT BIAS CURRENT, INPUT BIAS CURRENT
* VS COMMON MODE VOLTAGE, INPUT COMMON MODE RANGE, INPUT
* OFFSET VOLTAGE WITH TEMPERATURE EFFECTS, AND QUIESCENT
* CURRENT VS VOLTAGE AND TEMPERATURE. MODEL INCLUDES
* DOUBLE DIFF INPUT PROTECTION DIODES.
* MODEL DOES NOT INCLUDE SHUTDOWN.
*/////////////////////////////////////////////////////////////////////////
Q33 7 8 9 QP
R45 10 11 1
R46 12 11 1
R47 13 14 1100
R49 15 16 2E3
R50 15 17 2E3
R51 18 19 1100
Q35 20 20 21 QP
Q36 22 22 20 QP
Q37 21 21 23 QN
Q38 23 23 22 QN
D13 21 24 DD
D14 19 24 DD
D15 25 26 DD
D16 25 19 DD
V9 21 26 0
D17 27 0 DIN
D18 28 0 DIN
I14 0 27 0.1E-3
I15 0 28 0.1E-3
C13 13 0 1.5E-12
C14 4 0 1.5E-12
D19 29 0 DVN
D20 30 0 DVN
I16 0 29 0.1E-3
I17 0 30 0.1E-3
E15 18 4 29 30 3.1
G5 13 18 27 28 3.5E-4
E16 31 0 9 0 1
E17 32 0 33 0 1
E18 34 0 35 0 1
R56 31 36 1E6
R57 32 37 1E6
R58 34 38 1E6
R59 0 36 100
R60 0 37 100
R61 0 38 100
E19 39 40 38 0 0.005
R62 41 35 1E3
R63 35 42 1E3
C15 31 36 1E-12
C16 32 37 1E-12
C17 34 38 100E-12
E20 43 39 37 0 -0.135
E21 13 43 36 0 0.028
C19 16 17 0.12E-12
M1 17 26 10 10 MDP L=2U W=700U
M2 16 19 12 12 MDP L=2U W=700U
G6 8 9 44 0 1.3E-5
R64 0 44 1E12
V52 44 0 1
V53 25 33 -0.08
V54 7 11 -1.0
G12 13 18 45 0 6.5E-5
R136 0 45 10E3
R137 0 45 10E3
R138 40 39 1E9
R139 39 43 1E9
R140 43 13 1E9
E54 42 0 13 0 1
E55 41 0 18 0 1
C23 13 18 0.05E-12
E57 40 3 46 0 4.49E-4
R146 40 3 1E9
R147 0 44 1E12
Q41 47 48 33 QLN
R148 48 49 1E3
R149 50 51 1E3
R150 52 6 5
R151 2 53 5
R153 54 55 1
R154 56 9 5
R155 33 57 5
D22 58 6 DD
D23 2 58 DD
E58 33 0 2 0 1
E59 9 0 6 0 1
R156 2 6 43.3E3
E60 59 33 9 33 0.51
D24 54 9 DD
D25 33 54 DD
M3 60 61 53 53 NLT L=3U W=2500U
M4 62 63 52 52 PLT L=3U W=2500U
M5 64 64 56 56 PLT L=3U W=2500U
M9 65 65 57 57 NLT L=3U W=2500U
R157 66 63 100
R158 67 61 100
G14 54 59 68 59 0.2E-3
R159 59 54 1.1E6
C24 55 69 8.84E-12
C25 58 0 0.5E-12
D26 61 47 DD
D27 70 63 DD
Q42 70 51 9 QLP
R160 58 62 10
R161 60 58 10
E61 71 59 16 17 1
R162 71 68 1E4
C26 68 59 0.1E-12
G15 72 59 54 59 -1E-3
G16 59 73 54 59 1E-3
G17 59 74 65 33 1E-3
G18 75 59 9 64 1E-3
D28 75 72 DD
D29 73 74 DD
R163 72 75 100E6
R164 74 73 100E6
R165 75 9 1E3
R166 33 74 1E3
E62 9 66 9 75 1
E63 67 33 74 33 1
R167 73 59 1E6
R168 74 59 1E6
R169 59 75 1E6
R170 59 72 1E6
G19 6 2 46 0 -1.15E-3
R171 59 68 1E9
R172 66 9 1E9
R173 33 67 1E9
G20 64 65 44 0 800U
I22 6 2 0.3E-3
L2 58 1 0.4E-9
R175 58 1 400
R176 64 9 1E8
R177 33 65 1E8
R178 53 61 1E8
R179 52 63 1E8
E99 9 50 6 52 4.8
E100 49 33 53 2 4.8
E124 69 0 58 0 1
R719 54 69 3E7
I30 0 76 1E-3
D46 76 0 DD
R278 0 76 10E6
V127 76 46 0.65
R279 0 46 10E6
R780 4 18 1E9
V128 9 24 -0.1
R281 19 22 50
E125 77 0 35 78 100
E126 79 0 78 35 100
M10 80 77 0 0 NSW
M11 81 79 0 0 NSW
R282 80 82 1E5
R283 81 82 1E5
V129 82 0 1
G21 0 3 81 0 0.9E-6
G22 3 0 80 0 1.5E-6
G23 4 0 80 0 1.5E-6
G24 0 4 81 0 0.9E-6
V130 9 78 1.5
V132 15 33 -0.7
R284 0 78 1E8
R285 0 77 1E8
R286 0 79 1E8
.MODEL DD D
.MODEL DVN D KF=2.5E-15
.MODEL DIN D KF=8E-15
.MODEL MDP PMOS KP=200U VTO=-0.7
.MODEL QN NPN
.MODEL QP PNP
.MODEL PLT PMOS KP=200U VTO=-0.7
.MODEL NLT NMOS KP=200U VTO=0.7
.MODEL NSW NMOS KP=200U VTO=0 IS=1E-18
.MODEL QLN NPN
.MODEL QLP PNP
.ENDS
* END MODEL LMH6618
