* PINS:  1=NC+ 2=NC- 3=VEE 4=VO 5=VCC
.SUBCKT LP324 1 2   5 3 4
IEE 5 10 1.502u
VS1 11 0 0
VC 5 16 2
VE 17 3 1.3
VLP 19 0 20
VLN 0 20 20
VS2 13 15 0
F1 13 14 POLY(5) VS1 VC VE VLP VLN 0 212206590.7891938 -212206590.7891938
+ 212206590.7891938 212206590.7891938 -212206590.7891938
E1 14 0 POLY(2) 3 0 5 0   0 0.5 0.5
H1 18 0 VS2 1000
GCM 0 12 10 0   1.884955592153876e-010
GA 12 0 6 7   1.884955592153876e-005
C1 6 7 8.66p
CE 10 14 1e-019
C2 12 13 3e-011
RC1 3 6 53051.64769729845
RC2 3 7 53051.64769729845
RE1 8 10 18541.40578154038
RE2 9 10 18541.40578154038
RE 10 14 133155792.276964
RP 3 5 50.00075101128019
R2 12 11 100k
RO2 13 14 25
ROUTAC 15 4 50
D5 3 5 D
D3 4 16 D
D4 17 4 D
D1 18 19 D
D2 20 18 D
Q1 6 2 8 QINN
Q2 7 1 9 QINP
*
.MODEL D D cjo=1f ;my
.MODEL QINN PNP (BF=714.2857142857142)
.MODEL QINP PNP (BF=789.4736842105264 IS=1e-016)
.ENDS LP324