* Library of High Speed Optocoupler VOH1016
.SUBCKT VOH1016 A C NC VCC GND VO
Rs A AA -8.406e-002
dD1  AA 6  DEMIT0
dD2  AA C  DEMIT
vV1  6  C  DC 0
wW1  VCC 7  vV1  I_SW1
rR3  GND 7  10K  
A1 7 0 0 0 0 VO1 0 GND BUF  TD=70n VHIGH=4 REF=2 TRISE=200n TFALL=50n 
RM1 VCC M1D 10k
M1 M1D VO1 GND M1MOD
M2 VO M1D GND M2MOD
.model M1MOD NMOS(VTO=1.5 KP=3m)
.model M2MOD NMOS(VTO=1.5 KP=25m)
*
R4	   0 NC 1MEG
C1	   0 NC 1u
.MODEL DEMIT0   D 
+ IS={1.8e-021/2} N=1.02 
+ BV=3 IBV=0.5u  XTI=4
+ EG=1.52436  
.MODEL DEMIT   D 
+ IS={1.8e-021/2} N=1.02 
+ BV=3 IBV=0.5u  XTI=4
+ EG=1.52436 CJO=18p VJ=0.75 M=0.5 FC=0.5
.MODEL I_SW1 ISWITCH (Roff=1e6 Ron=1 IT={0.68m/2} IH={0.12m/2})
.ends VOH1016