* Tunnel diode models
* http://www.metelics.com/spicetunnel.htm
* MBD1057 MBD2057 MBD3057 MBD4057 MBD5057 
* Changes: 
* G1 1 2 5 0  -29.263E-6 7.3533E-3 -83.688E-3 0.25456
* -> G1 1 2 POLY(1) 5 0  -29.263E-6 7.3533E-3 -83.688E-3 0.25456

.SUBCKT MBD1057 1 2 
* 1 - Anode 2 - Cathode
D1 1 2 DF
C1 1 2 0.3E-12
E1 6 0 1 2 1.0
R1 5 6 100
D2 5 0 DCUT
G1 1 2 POLY(1) 5 0  -29.263E-6 7.3533E-3 -83.688E-3 0.25456
.MODEL DF D (IS=260.1E-9 N=2.65 CJ0=0.001E-12)
.MODEL DCUT D (N=0.1 RS=0.001 IS=1.0E-25 CJ0=0.001E-12)
.ENDS

.SUBCKT MBD2057 1 2 
* 1 - Anode 2 - Cathode
D1 1 2 DF
C1 1 2 0.3E-12
E1 6 0 1 2 1.0
R1 5 6 100
D2 5 0 DCUT
G1 1 2 POLY(1) 5 0  -0.40255E-6 9.204E-3 -112.173E-3 0.32731
.MODEL DF D (IS=260.1E-9 N=2.65 CJ0=0.001E-12)
.MODEL DCUT D (N=0.1 RS=0.001 IS=1.0E-25 CJ0=0.001E-12)
.ENDS

.SUBCKT MBD3057 1 2 
* 1 - Anode 2 - Cathode
D1 1 2 DF
C1 1 2 0.3E-12
E1 6 0 1 2 1.0
R1 5 6 100
D2 5 0 DCUT
G1 1 2 POLY(1) 5 0  -71.712E-6 13.058E-3 -124.09E-3 0.28390
.MODEL DF D (IS=260.1E-9 N=2.65 CJ0=0.001E-12)
.MODEL DCUT D (N=0.1 RS=0.001 IS=1.0E-25 CJ0=0.001E-12)
.ENDS

.SUBCKT MBD4057 1 2 
* 1 - Anode 2 - Cathode
D1 1 2 DF
C1 1 2 0.3E-12
E1 6 0 1 2 1.0
R1 5 6 100
D2 5 0 DCUT
G1 1 2 POLY(1) 5 0  -112.66E-6 17.831E-3 -169.14E-3 0.38706
.MODEL DF D (IS=260.1E-9 N=2.65 CJ0=0.001E-12)
.MODEL DCUT D (N=0.1 RS=0.001 IS=1.0E-25 CJ0=0.001E-12)
.ENDS

.SUBCKT MBD5057 1 2 
* 1 - Anode 2 - Cathode
D1 1 2 DF
C1 1 2 0.3E-12
E1 6 0 1 2 1.0
R1 5 6 100
D2 5 0 DCUT
G1 1 2 POLY(1) 5 0  -128.86E-6 20.645E-3 -164.36E-3 0.25235
.MODEL DF D (IS=260.1E-9 N=2.65 CJ0=0.001E-12)
.MODEL DCUT D (N=0.1 RS=0.001 IS=1.0E-25 CJ0=0.001E-12)
.ENDS

*http://www.metelics.com/spicetunnel.htm
*Values for G1 1 2 5 0 A B C D
*MBD1057
* -29.263E-6
* 7.3533E-3
* -83.688E-3
* 0.25456
 
*MBD2057
* -0.40255E-6
* 9.204E-3
* -112.173E-3
* 0.32731
* 
*MBD3057
* -71.712E-6
* 13.058E-3
* -124.09E-3
* 0.28390
* 
*MBD4057
* -112.66E-6
* 17.831E-3
* -169.14E-3
* 0.38706
* 
*MBD5057
* -128.86E-6
* 20.645E-3
* -164.36E-3
* 0.25235
* 

