*Model from ONSEMI MC33201-2-4 SPICE MODEL.ZIP
*
*               -IN +IN OUT VCC VEE
.SUBCKT MC33201  1   2   18  50  99
*
* NOTE: - NOISE IS NOT MODELED.
*       - TEMPERATURE IS NOT MODELED.
*       - PSR IS NOT MODELED.
*
I1 4 99 DC=62.66U
R3 5 50 1K
R15 22 40 1K
G4 56 0 14 120 1.364E-2
R4 6 50 1K
I2 50 99 DC=.604M
G0 98 9 6 5 2E-2
R0 98 9 1K
C8 53 129 80P
C7 15 48 80P
D3 1 50 DDEF
.MODEL DDEF D
D1 2 50 DDEF
D2 99 2 DDEF
R11 30 0 10MEG
I3 50 24 DC=45U
C5 8 23 5.88P
C4 5 6 5.88P
R5 8 99 1K
D4 99 1 DDEF
C6 98 22 60N
G8 98 14 0 30 1E-6
R6 23 99 1K
G2 98 9 23 8 2E-2
V1 25 99 DC=5.3
V2 50 26 DC=4.6
IOS 2 1 DC=2.5N
D8 2 1 DDEF
D7 1 2 DDEF
EN 98 99 50 99 .5
D10 24 26 DBIAS
.MODEL DBIAS D N=10
D9 25 4 DBIAS
GN3 98 14 40 98 1U
RN1 98 14 1MEG
Q3 5 1 4 QNPNIN
.MODEL QNPNIN NPN VAF=100
Q4 6 7 4 QNPNIN
Q6 8 1 24 QPNPDEF
.MODEL QPNPDEF PNP
Q5 23 7 24 QPNPDEF
L2 0 37 10
E1 120 98 18 98 .1
R19 0 0 1K
F2 11 99 V10 1
R17 127 15 14.7K
G6 98 40 98 9 .6M
R16 98 40 1.92MEG
V4 19 98 DC=5.23
D5 40 19 DDEF
V5 98 121 DC=5.23
D6 121 40 DDEF
R13 37 30 700
F4 50 54 V13 1
V10 50 127 DC=0
V13 20 99 DC=0
R18 129 20 14.7K
VOS 7 2 DC=2M
G7 0 30 4 99 10E-9
Q2 48 11 50 QPNPOUT1
.MODEL QPNPOUT1 PNP NF=1.026
F1 50 15 V25 .01
R32 48 18 7.5
Q1 53 54 99 QNPNOUT1
.MODEL QNPNOUT1 NPN NF=1.026
F3 129 99 V24 .01
R33 18 53 7.5
D19 56 59 DDEF
D20 58 56 DDEF
R34 57 58 100
V24 0 60 DC=.63
V25 57 0 DC=.63
R1 59 60 100
R7 0 18 1MEG
.ENDS

* Pin order for the universal "opamp2.asy" symbol
*.SUBCKT MC33201  1   2   18  50  99
.SUBCKT MC33201u 2 1 50 99 18
*
* NOTE: - NOISE IS NOT MODELED.
*       - TEMPERATURE IS NOT MODELED.
*       - PSR IS NOT MODELED.
*
I1 4 99 DC=62.66U
R3 5 50 1K
R15 22 40 1K
G4 56 0 14 120 1.364E-2
R4 6 50 1K
I2 50 99 DC=.604M
G0 98 9 6 5 2E-2
R0 98 9 1K
C8 53 129 80P
C7 15 48 80P
D3 1 50 DDEF
.MODEL DDEF D
D1 2 50 DDEF
D2 99 2 DDEF
R11 30 0 10MEG
I3 50 24 DC=45U
C5 8 23 5.88P
C4 5 6 5.88P
R5 8 99 1K
D4 99 1 DDEF
C6 98 22 60N
G8 98 14 0 30 1E-6
R6 23 99 1K
G2 98 9 23 8 2E-2
V1 25 99 DC=5.3
V2 50 26 DC=4.6
IOS 2 1 DC=2.5N
D8 2 1 DDEF
D7 1 2 DDEF
EN 98 99 50 99 .5
D10 24 26 DBIAS
.MODEL DBIAS D N=10
D9 25 4 DBIAS
GN3 98 14 40 98 1U
RN1 98 14 1MEG
Q3 5 1 4 QNPNIN
.MODEL QNPNIN NPN VAF=100
Q4 6 7 4 QNPNIN
Q6 8 1 24 QPNPDEF
.MODEL QPNPDEF PNP
Q5 23 7 24 QPNPDEF
L2 0 37 10
E1 120 98 18 98 .1
R19 0 0 1K
F2 11 99 V10 1
R17 127 15 14.7K
G6 98 40 98 9 .6M
R16 98 40 1.92MEG
V4 19 98 DC=5.23
D5 40 19 DDEF
V5 98 121 DC=5.23
D6 121 40 DDEF
R13 37 30 700
F4 50 54 V13 1
V10 50 127 DC=0
V13 20 99 DC=0
R18 129 20 14.7K
VOS 7 2 DC=2M
G7 0 30 4 99 10E-9
Q2 48 11 50 QPNPOUT1
.MODEL QPNPOUT1 PNP NF=1.026
F1 50 15 V25 .01
R32 48 18 7.5
Q1 53 54 99 QNPNOUT1
.MODEL QNPNOUT1 NPN NF=1.026
F3 129 99 V24 .01
R33 18 53 7.5
D19 56 59 DDEF
D20 58 56 DDEF
R34 57 58 100
V24 0 60 DC=.63
V25 57 0 DC=.63
R1 59 60 100
R7 0 18 1MEG
.ENDS
