.subckt mc34071   1 36 15 20 12 11 6
*START OF DECK
*     +IN -IN OUT +VSS CMP1 CMP2 -VSS
*NODE: 1   36  15  20   11   6    12
*------INPUT STAGE-------
VOSBAL  7  29  -4.23762000E-04
EU1     8  1 20 12 -1.41254E-05
EU2     8  7  5 12 -1
RB1     12 10 1  TC= 1.000000E-05 0.000000E+00
IB4     10 12 1.000000E-06
RB3     12  5 62173.6  TC= 1.00000000E-02 0.00000000E+00
IB3     12  5 1.608398E-08
G1      12  1 10  12 -9.700000E-02
G2      12 36 10  12 -1.030000E-01
RDM    36 29 1.000000E+06
RCM    31 13 2.000000E+11
CDM    36 29 8.000000E-13
G5     31 13 36 31 5E-12
G6     31 13  1 31 5E-12
*------INTERMEDIATE  STAGE-------
GDM    31 16 29 36 1
GCM    31 16 13 31 -7.06268772E-06
R1     31 16 2.21450866E+02
C1     31 16 9.11949E-11
VCP    23 31 100
VCM    24 31 -100
DD1    16 23 MD2
.MODEL MD2 D XTI=1.000000P
* SPECTRE: + IMAX=1000
DD2    24 16 MD2
G3     31  6 16 31 -1.29096326E-06
R2     31  6 100000
C2     11  6 1E-11
RP1    31 20 7894.74
RP2    31 12 7894.74
*------OUTPUT  STAGE-------
G4     31 11 6 31 -1.21260909E+02
ROUT   31 11 30
DD3    11  9 MD3
.MODEL MD3 D IS=10.0F XTI=1.0P N= 8.792181E-01
* SPECTRE: + IMAX=1000
DD4     9 11 MD4
.MODEL MD4 D IS=10.0F XTI=1.0P N= 1.377443E+00
* SPECTRE: + IMAX=1000
EU6     9 31 2 31 1
RO1    11 26 30
FF1    31 28 VFF1  1
VFF1   26 2  0.0
FF2    31 20 VFF2  -1
VFF2   33 31 0.0
FF3    12 31 VFF3  -1
VFF3   31 27 0.0
DD8    27 28 MID
DD7    28 33 MID
.MODEL MID D XTI=1.000000F N=1 IS=10.000000F
VP     20 22 1.59394
VM     21 12 0.85
DD5    25 22 MID
DD6    21 17 MID
VP1    20 30 1.73427
VM1    32 12 0.842661
DD9     2 30 MD9
DD10   32 15 MD9
.MODEL MD9 D XTI=1.000000F N=1 IS=10.000000F
HH1 25 2 POLY(2) VIC2 VIC1 0 68.0628 0 53.4779 0 0 0 0 0 0
HH2 2 17 POLY(2) VIC3 VIC1 0 -68.0628 0 -53.4779 0 0 0 0 0 0
VIC1   37 3 0.0
VIC2   2 14 0.0
VIC3   14 15 0.0
VPP   37 0 1
RPP   3 0 100.0K
RO3  15 20 200.0MEG
RO2  15 12 200.0MEG
.ends

.subckt mc34071a   1 36 15 20 12 11 6
*START OF DECK
*     +IN -IN OUT +VSS CMP1 CMP2 -VSS
*NODE: 1   36  15  20   11   6    12
*------INPUT STAGE-------
VOSBAL  7  29  -4.23762000E-04
EU1     8  1 20 12 -1.41254E-05
EU2     8  7  5 12 -1
RB1     12 10 1  TC= 1.000000E-05 0.000000E+00
IB4     10 12 1.000000E-06
RB3     12  5 62173.6  TC= 2.00000000E-02 0.00000000E+00
IB3     12  5 8.041992E-09
G1      12  1 10  12 -9.700000E-02
G2      12 36 10  12 -1.030000E-01
RDM    36 29 1.000000E+06
RCM    31 13 2.000000E+11
CDM    36 29 8.000000E-13
G5     31 13 36 31 5E-12
G6     31 13  1 31 5E-12
*------INTERMEDIATE  STAGE-------
GDM    31 16 29 36 1
GCM    31 16 13 31 -7.06268772E-06
R1     31 16 2.21450866E+02
C1     31 16 9.11949E-11
VCP    23 31 100
VCM    24 31 -100
DD1    16 23 MD2
.MODEL MD2 D XTI=1.000000P
DD2    24 16 MD2
G3     31  6 16 31 -1.29096326E-06
R2     31  6 100000
C2     11  6 1E-11
RP1    31 20 7894.74
RP2    31 12 7894.74
*------OUTPUT  STAGE-------
G4     31 11 6 31 -1.21260909E+02
ROUT   31 11 30
DD3    11  9 MD3
.MODEL MD3 D IS=10.0F XTI=1.0P N= 8.792181E-01
DD4     9 11 MD4
.MODEL MD4 D IS=10.0F XTI=1.0P N= 1.377443E+00
EU6     9 31 2 31 1
RO1    11 26 30
FF1    31 28 VFF1  1
VFF1   26 2  0.0
FF2    31 20 VFF2  -1
VFF2   33 31 0.0
FF3    12 31 VFF3  -1
VFF3   31 27 0.0
DD8    27 28 MID
DD7    28 33 MID
.MODEL MID D XTI=1.000000F N=1 IS=10.000000F
VP     20 22 1.59394
VM     21 12 0.85
*VM     21 12 1.57975
DD5    25 22 MID
DD6    21 17 MID
VP1    20 30 1.73427
VM1    32 12 0.842661
DD9     2 30 MD9
DD10   32 15 MD9
.MODEL MD9 D XTI=1.000000F N=1 IS=10.000000F
HH1 25 2 POLY(2) VIC2 VIC1 0 68.0628 0 53.4779 0 0 0 0 0 0
HH2 2 17 POLY(2) VIC3 VIC1 0 -68.0628 0 -53.4779 0 0 0 0 0 0
VIC1   37 3 0.0
VIC2   2 14 0.0
VIC3   14 15 0.0
VPP   37 0 1
RPP   3 0 100.0K
RO3  15 20 200.0MEG
RO2  15 12 200.0MEG
.ends

.subckt mc34072   1 36 15 20 12 
*START OF DECK
*     +IN -IN OUT +VSS  -VSS
*NODE: 1   36  15  20     12
*------INPUT STAGE-------
VOSBAL  7  29  -4.23762000E-04
EU1     8  1 20 12 -1.41254E-05
EU2     8  7  5 12 -1
RB1     12 10 1  TC= 1.000000E-05 0.000000E+00
IB4     10 12 1.000000E-06
RB3     12  5 62173.6  TC= 1.00000000E-02 0.00000000E+00
IB3     12  5 1.608398E-08
G1      12  1 10  12 -9.700000E-02
G2      12 36 10  12 -1.030000E-01
RDM    36 29 1.000000E+06
RCM    31 13 2.000000E+11
CDM    36 29 8.000000E-13
G5     31 13 36 31 5E-12
G6     31 13  1 31 5E-12
*------INTERMEDIATE  STAGE-------
GDM    31 16 29 36 1
GCM    31 16 13 31 -7.06268772E-06
R1     31 16 2.21450866E+02
C1     31 16 9.11949E-11
VCP    23 31 100
VCM    24 31 -100
DD1    16 23 MD2
.MODEL MD2 D XTI=1.000000P
* SPECTRE: + IMAX=1000
DD2    24 16 MD2
G3     31  6 16 31 -1.29096326E-06
R2     31  6 100000
C2     11  6 1E-11
RP1    31 20 7894.74
RP2    31 12 7894.74
*------OUTPUT  STAGE-------
G4     31 11 6 31 -1.21260909E+02
ROUT   31 11 30
DD3    11  9 MD3
.MODEL MD3 D IS=10.0F XTI=1.0P N= 8.792181E-01
* SPECTRE: + IMAX=1000
DD4     9 11 MD4
.MODEL MD4 D IS=10.0F XTI=1.0P N= 1.377443E+00
* SPECTRE: + IMAX=1000
EU6     9 31 2 31 1
RO1    11 26 30
FF1    31 28 VFF1  1
VFF1   26 2  0.0
FF2    31 20 VFF2  -1
VFF2   33 31 0.0
FF3    12 31 VFF3  -1
VFF3   31 27 0.0
DD8    27 28 MID
DD7    28 33 MID
.MODEL MID D XTI=1.000000F N=1 IS=10.000000F
VP     20 22 1.59394
VM     21 12 0.85
DD5    25 22 MID
DD6    21 17 MID
VP1    20 30 1.73427
VM1    32 12 0.842661
DD9     2 30 MD9
DD10   32 15 MD9
.MODEL MD9 D XTI=1.000000F N=1 IS=10.000000F
HH1 25 2 POLY(2) VIC2 VIC1 0 68.0628 0 53.4779 0 0 0 0 0 0
HH2 2 17 POLY(2) VIC3 VIC1 0 -68.0628 0 -53.4779 0 0 0 0 0 0
VIC1   37 3 0.0
VIC2   2 14 0.0
VIC3   14 15 0.0
VPP   37 0 1
RPP   3 0 100.0K
RO3  15 20 200.0MEG
RO2  15 12 200.0MEG
.ends