.subckt mdc1000 input output return
D1 input output D1
D2 return output D2
Q1 input N001 return 0 N
Q2 N001 input output 0 P
R1 N001 return 5k
R2 input return 15k
.model d1 d Vfwd=0.6 Ron=1 
.model d2 d Vfwd=0.6 Ron=1 Vrev=10.4 Rrev=8
.model n npn tf=3n tr=10n cje=7p cjc=2p rc=5
.model p pnp tf=1n tr=10n cje=7p cjc=2p rc=5
.ends mdc1000
