.SUBCKT ne97733_1V_5mA 1 2 3 
* Bias: Vs=1.00 V; Is=5.0 mA                
*  GHz  S  MA  R 50                
* Freq  S11                S21               S12                S22  
* Z1=50.000000 Z2=50.000000

R1N 1 10 -5.000000e+001
R1P 10 11 1.000000e+002
R2N 2 20 -5.000000e+001
R2P 20 21 1.000000e+002

*S11 FREQ MAG PHASE
E11 11 12 FREQ {V(10,3)}= MAG
+( 5.000000e+008, 4.280000e-001,-1.263000e+002)
+( 8.000000e+008, 3.820000e-001,-1.606000e+002)
+( 1.000000e+009, 3.740000e-001,-1.759000e+002)
+( 1.500000e+009, 3.870000e-001,-2.049000e+002)
+( 2.000000e+009, 4.190000e-001,-2.274000e+002)
+( 2.500000e+009, 4.610000e-001,-2.455000e+002)
+( 3.000000e+009, 5.020000e-001,-2.598000e+002)
+( 4.000000e+009, 5.520000e-001,-2.774000e+002)
+( 5.000000e+009, 5.740000e-001,-2.858000e+002)

*S12 FREQ MAG PHASE
E12 12 3 FREQ {V(20,3)}= MAG
+( 5.000000e+008, 1.010000e-001, 5.270000e+001)
+( 8.000000e+008, 1.320000e-001, 5.410000e+001)
+( 1.000000e+009, 1.540000e-001, 5.500000e+001)
+( 1.500000e+009, 2.130000e-001, 5.460000e+001)
+( 2.000000e+009, 2.740000e-001, 5.130000e+001)
+( 2.500000e+009, 3.360000e-001, 4.650000e+001)
+( 3.000000e+009, 3.930000e-001, 4.090000e+001)
+( 4.000000e+009, 5.010000e-001, 2.940000e+001)
+( 5.000000e+009, 5.990000e-001, 1.600000e+001)

*S21 FREQ MAG PHASE
E21 21 22 FREQ {V(10,3)}= MAG
+( 5.000000e+008, 4.899000e+000, 1.007000e+002)
+( 8.000000e+008, 3.398000e+000, 8.280000e+001)
+( 1.000000e+009, 2.813000e+000, 7.410000e+001)
+( 1.500000e+009, 2.002000e+000, 5.680000e+001)
+( 2.000000e+009, 1.583000e+000, 4.260000e+001)
+( 2.500000e+009, 1.323000e+000, 3.060000e+001)
+( 3.000000e+009, 1.148000e+000, 2.100000e+001)
+( 4.000000e+009, 9.480000e-001, 7.000000e+000)
+( 5.000000e+009, 8.590000e-001,-4.400000e+000)

*S22 FREQ MAG PHASE
E22 22 3 FREQ {V(20,3)}= MAG
+( 5.000000e+008, 4.170000e-001,-5.400000e+001)
+( 8.000000e+008, 3.090000e-001,-6.020000e+001)
+( 1.000000e+009, 2.720000e-001,-6.450000e+001)
+( 1.500000e+009, 2.300000e-001,-8.010000e+001)
+( 2.000000e+009, 2.260000e-001,-1.001000e+002)
+( 2.500000e+009, 2.470000e-001,-1.190000e+002)
+( 3.000000e+009, 2.700000e-001,-1.338000e+002)
+( 4.000000e+009, 2.670000e-001,-1.593000e+002)
+( 5.000000e+009, 2.180000e-001,-2.041000e+002)

.ENDS
