.SUBCKT ne97733_8V_3mA 1 2 3 
* Bias: Vs=8.00 V; Is=3.0 mA                
*  GHz  S  MA  R 50                
* Freq  S11                S21               S12                S22  
* Z1=50.000000 Z2=50.000000

R1N 1 10 -5.000000e+001
R1P 10 11 1.000000e+002
R2N 2 20 -5.000000e+001
R2P 20 21 1.000000e+002

*S11 FREQ MAG PHASE
E11 11 12 FREQ {V(10,3)}= MAG
+( 5.000000e+008, 6.260000e-001,-7.400000e+001)
+( 8.000000e+008, 4.470000e-001,-1.110000e+002)
+( 1.000000e+009, 3.740000e-001,-1.314000e+002)
+( 1.500000e+009, 3.020000e-001,-1.747000e+002)
+( 2.000000e+009, 3.100000e-001,-2.089000e+002)
+( 2.500000e+009, 3.550000e-001,-2.346000e+002)
+( 3.000000e+009, 4.070000e-001,-2.531000e+002)
+( 4.000000e+009, 4.280000e-001,-2.750000e+002)
+( 5.000000e+009, 5.030000e-001,-2.854000e+002)

*S12 FREQ MAG PHASE
E12 12 3 FREQ {V(20,3)}= MAG
+( 5.000000e+008, 8.800000e-002, 5.460000e+001)
+( 8.000000e+008, 1.090000e-001, 5.180000e+001)
+( 1.000000e+009, 1.220000e-001, 5.260000e+001)
+( 1.500000e+009, 1.570000e-001, 5.600000e+001)
+( 2.000000e+009, 2.020000e-001, 5.780000e+001)
+( 2.500000e+009, 2.560000e-001, 5.670000e+001)
+( 3.000000e+009, 3.140000e-001, 5.370000e+001)
+( 4.000000e+009, 4.380000e-001, 4.470000e+001)
+( 5.000000e+009, 5.730000e-001, 3.230000e+001)

*S21 FREQ MAG PHASE
E21 21 22 FREQ {V(10,3)}= MAG
+( 5.000000e+008, 4.205000e+000, 1.194000e+002)
+( 8.000000e+008, 3.520000e+000, 9.780000e+001)
+( 1.000000e+009, 3.075000e+000, 8.700000e+001)
+( 1.500000e+009, 2.293000e+000, 6.720000e+001)
+( 2.000000e+009, 1.824000e+000, 5.190000e+001)
+( 2.500000e+009, 1.516000e+000, 3.900000e+001)
+( 3.000000e+009, 1.301000e+000, 2.840000e+001)
+( 4.000000e+009, 1.038000e+000, 1.390000e+001)
+( 5.000000e+009, 9.300000e-001, 3.700000e+000)

*S22 FREQ MAG PHASE
E22 22 3 FREQ {V(20,3)}= MAG
+( 5.000000e+008, 6.730000e-001,-3.270000e+001)
+( 8.000000e+008, 5.580000e-001,-3.820000e+001)
+( 1.000000e+009, 5.120000e-001,-4.100000e+001)
+( 1.500000e+009, 4.510000e-001,-4.990000e+001)
+( 2.000000e+009, 4.270000e-001,-6.200000e+001)
+( 2.500000e+009, 4.250000e-001,-7.600000e+001)
+( 3.000000e+009, 4.330000e-001,-8.910000e+001)
+( 4.000000e+009, 4.250000e-001,-1.102000e+002)
+( 5.000000e+009, 3.280000e-001,-1.335000e+002)

.ENDS
