* FILENAME:        NE46100.CIR
* NEC PART NUMBER: NE46100
* LAST MODIFIED:   9/95
* BIAS CONDITIONS: Vce=5V to 12.5V, Ic=50mA to 100mA
* FREQ RANGE:      0.1GHz TO 4.0GHz
*
*                    CCB
*                .---||---.                 CCB=0.03pF
*                |        |C                CCE=0.5pF
*                |   /----o---LC----o       
*      o----LB---o--|     |                 LB=0.66nH (QTY 1-25.9mil)
*                B   \   --                 LC=0.38nH (QTY 1-18.2mil)
*                    |   -- CCE             LE=0.18nH (QTY 2-22.4mil)
*                  E o----'                 Bond wire: 0.7mil 
*                    |                                 diameter gold
*                   LE
*                    |
*                    o
*
*                   c b e
.SUBCKT NE46100/CEL 2 1 3
Q1  5 4 6 NE46100
CCB 4 5 0.03E-12
CCE 5 6 0.5E-12
LE  6 3 0.18E-9
LB  1 4 0.66E-9
LC  5 2 0.38E-9
.MODEL NE46100 NPN
+( IS=8.7e-16    BF=185.0         NF=0.959       VAF=30.0         IKF=0.20
+ ISE=5.70e-13   NE=1.80          BR=5.0         NR=1.0           VAR=12.4  
+ IKR=0.018      ISC=1.0e-14      NC=1.95        RE=0.630         RB=6.0
+ RBM=4.0        IRB=0.004        RC=3.0         CJE=4.9e-12      VJE=0.60
+ MJE=0.450      CJC=2.50e-12     VJC=0.830      MJC=0.330        XCJC=0.20
+ CJS=0.0        VJS=0.750        MJS=0.0        FC=0.50          TF=12.9e-12 
+ XTF=1.60       VTF=19.9         ITF=0.40       PTF=0.0          TR=1.70e-8 
+ EG=1.11        XTB=0.0          XTI=3.0        KF=0.0           AF=1.0 )
.ENDS
*$

* FILENAME:        NE46134.CIR
* NEC PART NUMBER: NE46134
* LAST MODIFIED:   11/97
* BIAS CONDITIONS: Vce=5V, to 12.5V,  Ic=50mA to 100mA
* FREQ RANGE:      0.1GHz TO 2.5GHz
*                            CCBpkg
*                    .-------||--------.  
*                    |          CCB    |   
*                    |      .--||---.  |          COLLECTOR
* BASE               |      |        | |             
*             __Tb_  |      |   /----o-o-------o----o
*  o---------|_____|-o-LB---o--|Q1   |         |  
*                    |      B   \   --         |  
*                   --          |   -- CCE     --  
*                   -- CBEpkg E o----'         --CCEpkg
*                    |          |              | 
*                    |         LE              |  
*                    `----------o--------------'  
*                               |                  
*                               -                  
*                              | |  Te             
*                              | |                 
*                               -                  
*                               |
*                               o EMITTER
*                    
*
*       CCB   = 0.03 pF       LB  = 1.2nH          Tb/Te:   
*       CCE   = 0.5 pF        LE  = 1.2nH          z=60 ohms
*       CCBpkg= 0.18pF                             l=50 mils
*       CCEpkg= 0.18pF                             a=0.0001
*       CBEpkg= 0.01pF                             f=0.9GHz
*
*                   c b e
.SUBCKT NE46134/CEL 2 1 3 
Q1 2 6 7 NE46100
CCB 6 2  0.03E-12
CCE 2 7  0.5E-12
LB  4 6  1.2E-9
LE  7 5  1.2E-9
TB 1 0 4 0 Z0=60 TD=9.63E-12
TE 5 0 3 0 Z0=60 TD=9.63E-12
CCBPKG 4 2 0.18E-12
CCEPKG 2 5 0.18E-12
CBEPKG 4 5 0.01E-12
.MODEL NE46100 NPN
+( IS=8.7e-16    BF=185.0         NF=0.959       VAF=30.0         IKF=0.20
+ ISE=5.70e-13   NE=1.80          BR=5.0         NR=1.0           VAR=12.4  
+ IKR=0.018      ISC=1.0e-14      NC=1.95        RE=0.630         RB=6.0
+ RBM=4.0        IRB=0.004        RC=3.0         CJE=4.9e-12      VJE=0.60
+ MJE=0.450      CJC=2.50e-12     VJC=0.830      MJC=0.330        XCJC=0.20
+ CJS=0.0        VJS=0.750        MJS=0.0        FC=0.50          TF=12.9e-12 
+ XTF=1.60       VTF=19.9         ITF=0.40       PTF=0.0          TR=1.70e-8 
+ EG=1.11        XTB=0.0          XTI=3.0        KF=0.0           AF=1.0 )
.ENDS
*$
* FILENAME:         NE662M04.CIR
* NEC PART NUMBER:  NE662M04
* LAST MODIFIED:    6/11/98, Rev A
* BIAS CONDITIONS:  Vce=.5V to 3V, Ic=.5mA to 30mA
* FREQ RANGE:       0.1GHz to 6ghz
* COMMENTS:         Correlated to measured noise figure at 2V, 5mA and 2V, 10mA and 2ghz to 12GHz
*
*                            CCBpkg
*                   ,--------||-----------.
*                   |                     |
*                   |        CCB          |
*                   |    .---||---.       |
*  BASE             |    |        |       | COLLECTOR
*                   |    |   /----o--LC---o---Lcx---o
*  o-------Lbx------o-LB-o--|Q1   |       |    
*                   |    B   \   --       |    
*                   |        |   -- CCE  --    
*            CBEpkg--      E o----'      -- CCEpkg
*                  --        |            |     
*                   |       LE            |     
*                   '--------o------------'     
*                            |
*                           Lex
*                            |
*                            o EMITTER
*
*       CCB    = 0.1pF            LB  = 1.00nH
*       CCE    = 0.1pF            LE  = 0.30nH
*                                 LC  = 0.45nH
*       CCBpkg = 0.003pF          Lbx = 0.100nH
*       CCEpkg = 0.2pF            Lcx = 0.230nH
*       CBEpkg = 0.2pF            Lex = 0.001nH
*
* SPICE node order:  Q1 collector (8)  base (7)  emitter (9)
.SUBCKT NE662M04/CEL 2 1 3
Q1  8 7 9 NE662
CCB 7 8 0.1E-12
CCE 8 9 0.1E-12
LE  9 6 0.3E-9
LB  4 7 1E-9
LC  8 5 0.45E-9
CBEPKG 4 6 0.2E-12
CCBPKG 4 5 0.003E-12
CCEPKG 5 6 0.2E-12
LBX 1 4 1.0E-9
LCX 5 2 0.23E-9
LEX 6 3 0.001E-9
.MODEL NE662 NPN 
+(IS=1e-16       BF=92            NF=0.993       VAF=14           IKF=0.15
+ ISE=4e-11      NE=2.5           BR=6.7         NR=1.20          VAR=13
+ IKR=0.008      ISC=1e-14        NC=1.21        RE=0.8           RB=3.05  
+ RBM=20         IRB=5e-5         RC=8.75        CJE=7e-13        VJE=0.5 
+ MJE=0.3        CJC=1.1e-13      VJC=0.85       MJC=0.33         XCJC=0.1
+ CJS=0          VJS=0.75         MJS=0          FC=0.4           TF=2e-12
+ XTF=.102       VTF=5            ITF=0.1        PTF=23.5         TR=1.0e-11
+ EG=1.11        XTB=0            XTI=3          KF=0             AF=1 )
.ENDS
*$

* FILENAME:        NE68000.CIR
* NEC PART NUMBER: NE68000
* LAST MODIFIED:   5/96
* BIAS CONDITIONS: Vce=1V to 6V, Ic=0.25mA to 20mA
* FREQ RANGE:      0.1GHZ to 20.1GHZ
*
*                CCB
*            .---||---.            CCB=0.08pF
*            |        |C           CCE=0.08pF
*            |   /----o---LC----o  
*  o----LB---o--|     |            LB=0.302nH (QTY 1-11.7mil)
*            B   \   --            LC=0.113nH (QTY 1- 7.8mil)
*                |   -- CCE        LE=0.183nH (QTY 2-17.7mil)
*              E o----'            Bond wire: 0.7mil 
*                |                            diameter gold
*               LE
*                |
*                o
*
*                   c b e
.SUBCKT NE68000/CEL 2 1 3
Q1  5 4 6 NE68000
CCB 4 5 0.08E-12
CCE 5 6 0.08E-12
LE  6 3 0.183E-9
LB  1 4 0.302E-9
LC  5 2 0.113E-9
.MODEL NE68000 NPN 
+(IS=3.84e-16    BF=124.9         NF=1.04        VAF=11.9         IKF=0.027
+ ISE=1.0e-14    NE=2.17          BR=1.0         NR=1.05          VAR=0.0
+ IKR=0.0        ISC=0.0          NC=2.0         RE=0.6           RB=17.9  
+ RBM=1.02       IRB=4.01e-4      RC=10.46       CJE=0.358e-12    VJE=0.711
+ MJE=0.5        CJC=0.162e-12    VJC=0.791      MJC=0.638        XCJC=0.0
+ CJS=0.0        VJS=0.750        MJS=0.0        FC=0.50          TF=8.7e-12    
+ XTF=18.0       VTF=19.1         ITF=.0818      PTF=0.0          TR=0.635e-9
+ EG=1.11        XTB=0.0          XTI=3.0        KF=0.0           AF=1.0 )
*
* NOTE:  CEL develops models using the Libra simulator.
*        For this simulator, a value of 0 for VAR and
*        IKR is interpreted as infinity.
.ENDS
*$

* FILENAME:         NE68018.CIR
* NEC PART NUMBER:  NE68018
* LAST MODIFIED:    5/96
* BIAS CONDITIONS:  Vce=1V to 6V, Ic=1mA to 15mA
* FREQ RANGE:       0.1GHz to 5GHz
*
*                            CCBpkg
*                   ,--------||-----------.
*                   |                     |
*                   |        CCB          |
*                   |    .---||---.       |
*  BASE             |    |        |       |         COLLECTOR
*                   |    |   /----o--LC---o--------Lcx------o
*  o-------Lbx------o-LB-o--|Q1   |       |
*                   |    B   \   --       |
*                   |        |   -- CCE  --
*            CBEpkg--      E o----'      -- CCEpkg  
*                  --        |            |
*                   |       LE            |
*                   '--------o------------'
*                            |
*                           Lex               
*                            | 
*                            o EMITTER
*          
*       CCB    = 0.08pF           LB  = 1.38nH
*       CCE    = 0.08pF           LE  = 0.85nH
*                                 LC  = 2.55nH
*       CCBpkg = 0.14pF           Lbx = 0.18nH
*       CCEpkg = 0.58pF           Lcx = 0.47nH
*       CBEpkg = 0.29pF           Lex = 0.09nH
*
* Q1 model parameters are as follows:
*                   c b e
.SUBCKT NE68018/CEL 2 1 3
Q1  8 7 9 NE68000
CCB 7 8 0.08E-12
CCE 8 9 0.08E-12
LE  9 6 0.85E-9
LB  4 7 1.38E-9
LC  8 5 2.55E-9
CBEPKG 4 6 0.29E-12
CCBPKG 4 5 0.14E-12
CCEPKG 5 6 0.58E-12
LBX 1 4 0.18E-9
LCX 5 2 0.47E-9
LEX 6 3 0.09E-9
.MODEL NE68000 NPN 
+(IS=3.84e-16    BF=124.9         NF=1.04        VAF=11.9         IKF=0.027
+ ISE=1.0e-14    NE=2.17          BR=1.0         NR=1.05          VAR=0.0
+ IKR=0.0        ISC=0.0          NC=2.0         RE=0.6           RB=17.9  
+ RBM=1.02       IRB=4.01e-4      RC=10.46       CJE=0.358e-12    VJE=0.711
+ MJE=0.5        CJC=0.162e-12    VJC=0.791      MJC=0.638        XCJC=0.0
+ CJS=0.0        VJS=0.750        MJS=0.0        FC=0.50          TF=8.7e-12    
+ XTF=18.0       VTF=19.1         ITF=.0818      PTF=0.0          TR=0.635e-9
+ EG=1.11        XTB=0.0          XTI=3.0        KF=0.0           AF=1.0 )
*
* NOTE:  CEL develops models using the Libra simulator.  For this simulator,
*        a value of 0 for VAR and IKR is interpreted as infinity.
.ENDS
*$

* FILENAME:        NE68019.CIR
* NEC PART NUMBER: NE68019
* LAST MODIFIED:   5/96
* BIAS CONDITIONS: Vce=1V to 6V, Ic=1mA to 15mA
* FREQ RANGE:      0.05GHz to 3GHz
*
*                            CCBpkg
*                   ,--------||-----------.
*                   |                     |
*                   |        CCB          |
*                   |    .---||---.       |
*  BASE             |    |        |       |   COLLECTOR
*                   |    |   /----o-------o--Lcx------o
*  o-------Lbx------o-LB-o--|Q1   |       |
*                        B   \   --       |
*                            |   -- CCE  --
*                          E o----'      -- CCEpkg
*                            |            |
*                           LE            |
*                            o------------'
*                            |
*                           Lex
*                            | 
*                            o EMITTER
*
*       CCB    = 0.08pF           LB  = 0.72nH
*       CCE    = 0.08pF           LE  = 0.76nH
*       CCBpkg = 0.17pF           Lbx = 0.19nH
*       CCEpkg = 0.21pF           Lcx = 0.19nH
*                                 Lex = 0.19nH
*
*                   c b e
.SUBCKT NE68019/CEL 2 1 3
Q1  5 7 8 NE68000
CCB 7 5 0.08E-12
CCE 5 8 0.08E-12
LE  8 6 0.76E-9
LB  4 7 0.72E-9
CCBPKG 4 5 0.17E-12
CCEPKG 5 6 0.21E-12
LBX 1 4 0.19E-9
LCX 5 2 0.19E-9
LEX 6 3 0.19E-9
.MODEL NE68000 NPN 
+( IS=3.84e-16   BF=124.9         NF=1.05        VAF=11.87        IKF=0.027 
+ ISE=1.0e-14    NE=2.17          BR=1.0         NR=1.05          VAR=0.0 
+ IKR=0.0        ISC=0.0          NC=2.0         RE=0.60          RB=17.9  
+ RBM=1.02       IRB=4.01e-4      RC=10.5        CJE=0.358e-12    VJE=0.711 
+ MJE=0.50       CJC=0.162e-12    VJC=0.791      MJC=0.638        XCJC=0.0 
+ CJS=0.0        VJS=0.750        MJS=0.0        FC=0.50          TF=8.70e-12         
+ XTF=18.0       VTF=19.1         ITF=0.082      PTF=0.0          TR=0.635e-9                
+ EG=1.11        XTB=0.0          XTI=3.0        KF=0.0           AF=1.0 )
*
* NOTE:  CEL develops models using the Libra simulator.
*        For this simulator, a value of 0 for VAR and
*        IKR is interpreted as infinity.
.ENDS
*$

* FILENAME:         NE68030.CIR
* NEC PART NUMBER:  NE68030
* LAST MODIFIED:    10/96
* BIAS CONDITIONS:  Vce=2.5V to 6V, Ic=1mA to 15mA
* FREQ RANGE:       0.05GHz to 3GHz
*
*                            CCBpkg
*                    .-------||--------.  
*                    |          CCB    |   
*                    |      .--||---.  |       COLLECTOR
* BASE               |      |        | |             
*                    |      |   /----o-o-----o--Lcx--o  
*            o--Lbx--o-LB---o--|Q1   |       |       
*                    |      B   \   --       --      
*                    |          |   -- CCE   -- CCEpkg
*                    --CBEpkg E o----'       |           
*                    --         |            |      
*                    |         LE            |       
*                    `----------o------------'       
*                               |                   
*                               Lex            
*                               |  
*                               o EMITTER
*                    
*       CCB    = 0.08pF          LB  = 0.7nH             
*       CCE    = 0.08pF          LE  = 1nH           
*       CCBpkg = 0.12pF          Lbx = 0.2nH          
*       CCEpkg = 0.16pF          Lcx = 0.2nH             
*       CBEpkg = 0.04pF          Lex = 0.2nH          
*
*                   c b e
.SUBCKT NE68030/CEL 2 1 3
Q1  5 7 8 NE68000
CCB 7 5 0.08E-12
CCE 5 8 0.08E-12
LE  8 6 1E-9
LB  4 7 0.7E-9
CCBPKG 4 5 0.12E-12
CCEPKG 5 6 0.16E-12
CBEPKG 4 6 0.04E-12
LBX 1 4 0.2E-9
LCX 5 2 0.2E-9
LEX 6 3 0.2E-9
* Q1 model parameters are as follows:
.MODEL NE68000 NPN 
+(IS=3.84e-16    BF=124.9         NF=1.04        VAF=11.9         IKF=0.027
+ ISE=1e-14      NE=2.17          BR=1           NR=1.05          VAR=0  
+ IKR=0          ISC=0            NC=2           RE=0.6           RB=17.9  
+ RBM=1.02       IRB=4.01e-4      RC=10.46       CJE=0.358e-12    VJE=0.711
+ MJE=0.5        CJC=0.162e-12    VJC=0.791      MJC=0.638        XCJC=0  
+ CJS=0          VJS=0.75         MJS=0          FC=0.5           TF=8.7e-12    
+ XTF=18         VTF=19.1         ITF=.0818      PTF=0            TR=0.635e-9
+ EG=1.11        XTB=0            XTI=3          KF=0             AF=1 )
*
* NOTE:  CEL develops models using the Libra simulator.
*        For this simulator, a value of 0 for IKR is 
*        interpreted as infinity.
.ENDS
*$

* FILENAME:         NE68033.CIR
* NEC PART NUMBER:  NE68033
* LAST MODIFIED:    7/97
* BIAS CONDITIONS:  Vce=2.5V to 6V, Ic=0.3mA to 20mA
* FREQ RANGE:       0.05GHz to 3GHz
*
*                            CCBpkg
*                    .-------||--------.  
*                    |          CCB    |   
*                    |      .--||---.  |       COLLECTOR
* BASE               |      |        | |             
*                    |      |   /----o-o-----o--Lcx--o  
*            o--Lbx--o-LB---o--|Q1   |       |       
*                    |      B   \   --       --      
*                    |          |   -- CCE   -- CCEpkg
*                    --CBEpkg E o----'       |           
*                    --         |            |      
*                    |         LE            |       
*                    `----------o------------'       
*                               |                   
*                               Lex            
*                               |  
*                               o EMITTER
*                    
*       CCB    = 0.08pF          LB  = 0.65nH             
*       CCE    = 0.08pF          LE  = 0.95nH           
*       CCBpkg = 0.1pF           Lbx = 0.3nH          
*       CCEpkg = 0.1pF           Lcx = 0.5nH             
*       CBEpkg = 0.01pF          Lex = 0.3nH          
*
*                   c b e
.SUBCKT NE68033/CEL 2 1 3
Q1  5 7 8 NE68000
CCB 7 5 0.08E-12
CCE 5 8 0.08E-12
LE  8 6 0.95E-9
LB  4 7 0.65E-9
CCBPKG 4 5 0.1E-12
CCEPKG 5 6 0.1E-12
CBEPKG 4 6 0.01E-12
LBX 1 4 0.3E-9
LCX 5 2 0.5E-9
LEX 6 3 0.3E-9
* Q1 model parameters are as follows:
.MODEL NE68000 NPN 
+(IS=3.84e-16    BF=124.9         NF=1.05        VAF=11.9         IKF=0.027
+ ISE=1e-14      NE=2.17          BR=1           NR=1.05          VAR=0  
+ IKR=0          ISC=0            NC=2           RE=0.6           RB=17.9  
+ RBM=1.02       IRB=4.01e-4      RC=10.5        CJE=0.358e-12    VJE=0.71 
+ MJE=0.5        CJC=0.162e-12    VJC=0.79       MJC=0.64         XCJC=0  
+ CJS=0          VJS=0.75         MJS=0          FC=0.5           TF=8.7e-12    
+ XTF=18         VTF=19.1         ITF=0.082      PTF=0            TR=0.635e-9
+ EG=1.11        XTB=0            XTI=3          KF=0             AF=1 )
*
* NOTE:  CEL develops models using the Libra simulator.
*        For this simulator, a value of 0 for VAR and IKR is 
*        interpreted as infinity.
.ENDS
*$

* FILENAME:         NE68035.CIR
* NEC PART NUMBER:  NE68035
* LAST MODIFIED:    11/96
* BIAS CONDITIONS:  Vce=6V, Ic=5mA to 20mA
* FREQ RANGE:       0.05GHz to 5GHz
*
*                            CCBpkg
*       .--------------------||-------------.  
*       |                       CCB         |   
*       |                   .--||---.       |        
*       |                   |        |      |             COLLECTOR
* BASE  |                   |   /----o--LC--o--o--Lcx--Rcx--o--o
*  o--o-o--Rbx--Lbx--o-LB---o--|Q1   |         |            |
*     |              |      B   \   --         --           |
*     |              |          |   -- CCE     -- CCEpkg    |
*     |              --CBEpkg  Eo----'         |            --
*     |              --         |              |            -- CCEx_pkg
*     |              |          Lex            |            | 
*    --              |          |              |            |
*    -- CBEx_pkg     |          Rex            |            |
*     |              |          |              |            |
*     '--------------o----------o--------------o------------'
*                               |
*                               o EMITTER
*       CCB    = 0.08pF         LB  = 0.57nH    Rbx = 0.1 ohms          
*       CCE    = 0.08pF LC  = 0.5nH             Rex = 0.1 ohms
*       CCBpkg = 0.05pF Lbx = 0.15nH            Rcx = 0.1 ohms
*       CCEpkg = 0.15pF    Lcx = 0.15nH        CBEx_pkg = 0.1pF 
*       CBEpkg = 0.05pF    Lex = 0.28nH        CCEx_pkg = 0.15pF 
*
*                   c b e 
.SUBCKT NE68035/CEL 2 1 3
Q1  11 10 9 NE68000
CCB 10 11 0.08E-12
CCE 11  9 0.08E-12
LB   7 10 0.57E-9
LC   8 11 0.5E-9
CBEPKG 7 3 0.05E-12
CCEPKG 8 3 0.15E-12
CCBPKG 1 8 0.05E-12
LBX 4 7 0.15E-9
LEX 9 6 0.28E-9
LCX 5 8 0.15E-9
RBX 1 4 0.1
REX 6 3 0.1
RCX 2 5 0.1
CBEX_PKG 1 3 0.1E-12
CCEX_PKG 2 3 0.15E-12
.MODEL NE68000 NPN 
+(IS=3.84e-16    BF=124.9         NF=1.04        VAF=11.9         IKF=0.027
+ ISE=1e-14      NE=2.17          BR=1           NR=1.05          VAR=0  
+ IKR=0          ISC=0            NC=2           RE=0.6           RB=17.9  
+ RBM=1.02       IRB=4.01e-4      RC=10.46       CJE=0.358e-12    VJE=0.711
+ MJE=0.5        CJC=0.162e-12    VJC=0.791      MJC=0.638        XCJC=0  
+ CJS=0          VJS=0.75         MJS=0          FC=0.5           TF=8.7e-12    
+ XTF=18         VTF=19.1         ITF=.0818      PTF=0            TR=0.635e-9
+ EG=1.11        XTB=0            XTI=3          KF=0             AF=1 )
* NOTE:  CEL develops models using the Libra simulator.  For this simulator, 
*        a value of 0 for IKR is interpreted as infinity.
.ENDS
*$

* FILENAME:        NE680M03.CIR
* NEC PART NUMBER: NE680M03
* LAST MODIFIED:   11/98
* BIAS CONDITIONS: Vce=0.5V to 6V, Ic=0.5mA to 15mA
* FREQ RANGE:      0.1GHz to 3GHz
*
*
*                            CCBpkg
*                   ,--------||-----------.
*                   |                     |
*                   |        CCB          |
*                   |    .---||---.       |
*  BASE             |    |        |       |   COLLECTOR
*                   |    |   /----o-------o--Lcx------o
*  o-------Lbx------o-LB-o--|Q1   |       |
*                        B   \   --       |
*                            |   -- CCE  --
*                          E o----'      -- CCEpkg
*                            |            |
*                           LE            |
*                            o------------'
*                            |
*                            |
*                           Lex
*                            | 
*                            o EMITTER
*
*       CCB    = 0.08pF           LB  = 0.4nH
*       CCE    = 0.08pF           LE  = 0.8nH
*       CCBpkg = 0.08pF           Lbx = 0.12nH
*       CCEpkg = 0.08pF           Lcx = 0.10nH
*                                 Lex = 0.12nH
*
Q1  5 7 8 NE68000
CCB 7 5 0.08E-12
CCE 5 8 0.08E-12
LE  8 6 0.8E-9
LB  4 7 0.4E-9
CCBPKG 4 5 0.08E-12
CCEPKG 5 6 0.08E-12
LBX 1 4 0.12E-9
LCX 5 2 0.10E-9
LEX 6 3 0.12E-9
.MODEL NE68000 NPN 
+( IS=5.98e-16   BF=179           NF=1.04        VAF=17           IKF=0.02 
+ ISE=1.0e-6     NE=30            BR=16          NR=1.04          VAR=100
+ IKR=6.85e-3    ISC=1.5e-9       NC=20          RE=0.50          RB=8.54
+ RBM=2          IRB=4e-4         RC=10          CJE=0.358e-12    VJE=0.86
+ MJE=0.50       CJC=0.162e-12    VJC=0.52       MJC=0.15         XCJC=1
+ CJS=0.0        VJS=0.750        MJS=0.0        FC=0.50          TF=8.70e-12         
+ XTF=20.0       VTF=0.3          ITF=0.04       PTF=120          TR=0.635e-9                
+ EG=1.11        XTB=0.0          XTI=3.0        KF=0.0           AF=1.0 )
* FILENAME:        NE68100.CIR
* NEC PART NUMBER: NE68100
* LAST MODIFIED:   5/96
* BIAS CONDITIONS: VCE=8V, IC=7mA,20mA; VCE=2.5V, IC=0.3/1/3mA
* FREQ RANGE:      1.5GHz TO 10GHz
*
*                CCB
*            .---||---.            CCB=0.07pF
*            |        |C           CCE=0.01pF
*            |   /----o---LC----o  
*  o----LB---o--|     |            LB=0.18nH (QTY 1-13.4mil)
*            B   \   --            LC=0.01nH (QTY 1- 8.3mil)
*                |   -- CCE        LE=0.15nH (QTY 2-17.6mil)
*              E o----'            Bond wire: 0.7mil 
*                |                            diameter gold
*               LE
*                |
*                o
*
*                   c b e
.SUBCKT NE68100/CEL 2 1 3
Q1  5 4 6 NE68100
CCB 4 5 0.07E-12
CCE 5 6 0.01E-12
LE  6 3 0.15E-9
LB  1 4 0.18E-9
LC  5 2 0.01E-9
.MODEL NE68100 NPN 
+( IS=2.70e-16   BF=185.0         NF=1.02        VAF=15.0         IKF=0.055
+ ISE=1.77e-11   NE=2.10          BR=1.0         NR=1.0           VAR=0.0
+ IKR=0.0        ISC=0.0          NC=2.0         RE=0.6           RB=12.0
+ RBM=3.70       IRB=1.20e-5      RC=8.0         CJE=1.20e-12     VJE=0.770
+ MJE=0.50       CJC=0.80e-12     VJC=0.270      MJC=0.560        XCJC=0.0
+ CJS=0.0        VJS=0.750        MJS=0.0        FC=0.50          TF=14.0e-12
+ XTF=3.0        VTF=25.0         ITF=0.10       PTF=0.0          TR=0.30e-9
+ EG=1.11        XTB=0.0          XTI=3.0        KF=0.0           AF=1.0 )
*
* NOTE:  CEL develops models using the Libra simulator.
*        For this simulator, a value of 0 for VAR and
*        IKR is interpreted as infinity.
.ENDS
*$

* FILENAME:         NE68118.CIR
* NEC PART NUMBER:  NE68118
* LAST MODIFIED:    5/96
* BIAS CONDITIONS:  Vce=2.5V to 8V, Ic=3mA to 10mA
* FREQ RANGE:       0.05GHz TO 3.0GHz
*
*                            CCBpkg
*                   ,--------||-----------.
*                   |                     |
*                   |        CCB          |
*                   |    .---||---.       |              
*  BASE             |    |        |       |         COLLECTOR
*                   |    |   /----o--LC---o--------Lcx------o
*  o-------Lbx------o-LB-o--|Q1   |       |         
*                   |    B   \   --       |         
*                   |        |   -- CCE  --         
*            CBEpkg--      E o----'      -- CCEpkg  
*                  --        |            |     
*                   |       LE            |     
*                   '--------o------------'     
*                            |
*                           Lex
*                            | 
*                            o EMITTER
*          
*       CCB    = 0.07pF           LB  = 1.16nH
*       CCE    = 0.01pF           LE  = 0.83nH
*                                 LC  = 1.54nH
*       CCBpkg = 0.09pF           Lbx = 0.18nH
*       CCEpkg = 0.51pF           Lcx = 0.8nH
*       CBEpkg = 0.25pF           Lex = 0.09nH
*
*                   c b e
.SUBCKT NE68118/CEL 2 1 3
Q1  8 7 9 NE68100
CCB 7 8 0.07E-12
CCE 8 9 0.01E-12
LE  9 6 0.83E-9
LB  4 7 1.16E-9
LC  8 5 1.54E-9
CBEPKG 4 6 0.25E-12
CCBPKG 4 5 0.09E-12
CCEPKG 5 6 0.51E-12
LBX 1 4 0.18E-9
LCX 5 2 0.8E-9
LEX 6 3 0.09E-9
.MODEL NE68100 NPN 
+( IS=2.70e-16   BF=185.0         NF=1.02        VAF=15.0         IKF=0.055
+ ISE=1.77e-11   NE=2.10          BR=1.0         NR=1.0           VAR=0.0
+ IKR=0.0        ISC=0.0          NC=2.0         RE=0.6           RB=12.0
+ RBM=3.70       IRB=1.20e-5      RC=8.0         CJE=1.20e-12     VJE=0.770
+ MJE=0.50       CJC=0.80e-12     VJC=0.270      MJC=0.560        XCJC=0.0
+ CJS=0.0        VJS=0.750        MJS=0.0        FC=0.50          TF=14.0e-12
+ XTF=3.0        VTF=25.0         ITF=0.10       PTF=0.0          TR=0.30e-9
+ EG=1.11        XTB=0.0          XTI=3.0        KF=0.0           AF=1.0 )
*
* NOTE:  CEL develops models using the Libra simulator.  For this simulator, 
*        a value of 0 for VAR and IKR is interpreted as infinity.
.ENDS
*$

* FILENAME:        NE68119.CIR
* NEC PART NUMBER: NE68119
* LAST MODIFIED:   5/96
* BIAS CONDITIONS: Vce=2.5V to 8.0V,  Ic=0.3mA to 10mA
* FREQ RANGE:      0.05GHz to 3GHz
*
*                   CCBpkg
*           .-------||--------.
*           |          CCB    |
*           |      .--||---.  |     COLLECTOR
* BASE      |      |        | |
*           |      |   /----o-o-----o--Lcx--o
*   o--Lbx--o-LB---o--|Q1   |       |
*                  B   \   --       --      
*                      |   -- CCE   -- CCEpkg
*                    E o----'       |
*                      |            |      
*                     LE            |       
*                      o------------'       
*                      |                  
*                      Lex            
*                      |  
*                      o EMITTER
*
*       CCB   = 0.07pF           LB  = 1.13nH             
*       CCE   = 0.01pF           LE  = 0.85nH           
*       CCBpkg= 0.18pF           Lbx = 0.19nH          
*       CCEpkg= 0.21pF           Lcx = 0.19nH             
*                                Lex = 0.19nH          
*
*                   c b e
.SUBCKT NE68119/CEL 2 1 3
Q1  5 7 8 NE68100
CCB 7 5 0.07E-12
CCE 5 8 0.01E-12
LE  8 6 0.85E-9
LB  4 7 1.13E-9
CCBPKG 4 5 0.18E-12
CCEPKG 5 6 0.21E-12
LBX 1 4 0.19E-9
LCX 5 2 0.19E-9
LEX 6 3 0.19E-9
.MODEL NE68100 NPN 
+( IS=2.7e-16    BF=185           NF=1.02        VAF=15           IKF=0.055
+ ISE=1.77e-11   NE=2.1           BR=1           NR=1             VAR=0  
+ IKR=0          ISC=0            NC=2           RE=0.6           RB=12  
+ RBM=3.7        IRB=1.2e-5       RC=8           CJE=1.20e-12     VJE=0.77 
+ MJE=0.5        CJC=0.8e-12      VJC=0.27       MJC=0.560        XCJC=0  
+ CJS=0          VJS=0.75         MJS=0          FC=0.50          TF=14e-12
+ XTF=3          VTF=25           ITF=0.1        PTF=0            TR=0.3e-9
+ EG=1.11        XTB=0            XTI=3          KF=0             AF=1   )
*
* NOTE:  CEL develops models using the Libra simulator.  For this simulator, 
*        a value of 0 for VAR and IKR is interpreted as infinity.
.ENDS
*$

* FILENAME:         NE68130.CIR
* NEC PART NUMBER:  NE68130
* LAST MODIFIED:    10/96
* BIAS CONDITIONS:  Vce=2.5V to 8V, Ic=0.3mA to 10mA
* FREQ RANGE:       0.05GHz to 3GHz
*
*                            CCBpkg
*                    .-------||--------.  
*                    |          CCB    |   
*                    |      .--||---.  |       COLLECTOR
* BASE               |      |        | |             
*                    |      |   /----o-o-----o--Lcx--o  
*            o--Lbx--o-LB---o--|Q1   |       |       
*                    |      B   \   --       --      
*                    |          |   -- CCE   -- CCEpkg
*                    --CBEpkg E o----'       |           
*                    --         |            |      
*                    |         LE            |       
*                    `----------o------------'       
*                               |                   
*                               Lex            
*                               |  
*                               o EMITTER
*                                
*       CCB    = 0.07pF          LB  = 0.52nH             
*       CCE    = 0.01pF          LE  = 1.18nH           
*       CCBpkg = 0.12pF          Lbx = 0.2nH          