* MODELLING FOR STB10NK60Z_1 
.SUBCKT STB10NK60Z_1 1 2 3
LG 2 4 7.5n Rpar=10 Rser=0
LS 12 3 7.5n Rpar=10 Rser=0
LD 6 1 4.5n Rpar=6 Rser=0
RG 4 5 3.05039
RS 9 12 0.499E-01
RD 7 6 0.591
RJ 8 7 0.125E-01
CGS 5 9 0.134E-08
CGD 7 10 0.218E-08
CK 11 7 0.145E-10
DGD 11 7 DGD
DBS 12 6 DBS
DBD 9 7 DBD
MOS 13 5 9 9 MOS L=1u W=1u
E1 10 5 101 0 1
E2 11 5 102 0 1
E3 8 13 POLY(2) 6 8 6 12 0 0 0 0 0.413E-01
G1 0 100 7 5 1u
D1 100 101 DID
D2 102 100 DID
R1 101 0 1MEG
R2 102 0 1MEG
 
.MODEL MOS NMOS
+ LEVEL=3
+ VTO=5.299
+ PHI=1.033
+ IS=0.1P
+ JS=0
+ THETA=0.562
+ KP=9.008
 
.MODEL DGD D
+ IS=0.1P
+ CJO=0.737E-10
+ VJ=0.648
+ M=0.325
.MODEL DBD D
+ IS=0.1P
+ CJO=0.192E-13
+ VJ=0.718
+ M=0.268
.MODEL DBS D
+ IS=0.1P
+ BV=620
+ N=1
+ TT=0.355E-06
+ RS=0.267
.MODEL DID D
+ IS=0.01P
+ RS=0
+ BV=630
 
.ENDS STB10NK60Z_1

* END OF MODELLING
*
* _/_/_/_/_/_/  
* _/ _/  
* _/_/ _/ STMicroelectronics 
* _/ _/  
* _/_/_/ _/  
* www.st.com  
*   
* 
*****************************************************
* Model Generated by STMicroelectronics *
* All Rights Reserved 	 *
* Commercial Use or Resale Restricted *
*****************************************************
* CREATION DATES: 12-04-2007  *
*    *
* POWER MOSFET Model (level 3)  *
*    *
* EXTERNAL PINS DESCRIPTION:  *
*    *
* PIN 1 -> Drain   *
* PIN 2 -> Gate   *
* PIN 3 -> Source   *
*    *
*  ****C****  *
* **********************  *
* *************************************** *
* PARAMETER MODELS EXTRACTED FROM MEASURED DATA *
* <<<<<<<<<<<>>>>>>>>>>> *
* *************************************** *
* THIS MODEL CAN BE USED AT TEMPERATURE: 25 °C *
*    *
*****************************************************
 
.SUBCKT STB11NK40ZT4 1 2 3
LG 2 4 7.5n Rpar=10 Rser=0
LS 12 3 7.5n Rpar=10 Rser=0
LD 6 1 4.5n Rpar=6 Rser=0
RG 4 5 4
RS 9 12 0.918E-02
RD 7 6 0.187
RJ 8 7 0.155
CGS 5 9 0.848E-09
CGD 7 10 0.112E-08
CK 11 7 0.498E-10
DGD 11 7 DGD
DBS 12 6 DBS
DBD 9 7 DBD
MOS 13 5 9 9 MOS L=1u W=1u
E1 10 5 101 0 1
E2 11 5 102 0 1
E3 8 13 POLY(2) 6 8 6 12 0 0 0 0 0.803E-01
G1 0 100 7 5 1u
D1 100 101 DID
D2 102 100 DID
R1 101 0 1MEG
R2 102 0 1MEG
 
.MODEL MOS NMOS
+ LEVEL=3
+ VTO=4.898
+ PHI=0.877
+ IS=0.1P
+ JS=0
+ THETA=0.365
+ KP=11.131
 
.MODEL DGD D
+ IS=0.1P
+ CJO=0.931E-12
+ VJ=0.757
+ M=0.338
.MODEL DBD D
+ IS=0.1P
+ CJO=0.144E-11
+ VJ=0.757
+ M=0.358
.MODEL DBS D
+ IS=0.1P
+ BV=444
+ N=1
+ TT=0.225E-06
+ RS=0.411E-01
.MODEL DID D
+ IS=0.01P
+ RS=0
+ BV=455
 
.ENDS STB11NK40ZT4
 
* END OF MODELLING
* MODELLING FOR STB11NK50ZT4
 
.SUBCKT STB11NK50ZT4 1 2 3
LG 2 4 7.5E-09 Rpar=10 Rser=0
LS 12 3 7.5E-09 Rpar=10 Rser=0
LD 6 1 4.5E-09 Rpar=10 Rser=0
RG 4 5 2.702
RS 9 12 0.219E-01
RD 7 6 0.304
RJ 8 7 0.232E-01
CGS 5 9 0.148E-08
CGD 7 10 0.225E-08
CK 11 7 0.408E-10
DGD 11 7 DGD
DBS 12 6 DBS
DBD 9 7 DBD
MOS 13 5 9 9 MOS L=1u W=1u
E1 10 5 101 0 1
E2 11 5 102 0 1
E3 8 13 POLY(2) 6 8 6 12 0 0 0 0 0.654E-01
G1 0 100 7 5 1u
D1 100 101 DID
D2 102 100 DID
R1 101 0 1MEG
R2 102 0 1MEG
 
.MODEL MOS NMOS
+ LEVEL=3
+ VTO=4.763
+ PHI=0.847
+ IS=0.1E-12
+ JS=0
+ THETA=0.304E-01
+ KP=11.208
 
.MODEL DGD D
+ IS=0.1E-12
+ CJO=0.137E-10
+ VJ=0.755
+ M=0.349
.MODEL DBD D
+ IS=0.1E-12
+ CJO=0.155E-10
+ VJ=0.761
+ M=0.332
.MODEL DBS D
+ IS=0.1E-12
+ BV=569
+ N=1
+ TT=0.388E-06
+ RS=0.636E-02
.MODEL DID D
+ IS=0.01E-12
+ RS=0
+ BV=679
.ENDS STB11NK50ZT4

* END OF MODELLING
*
* _/_/_/_/_/_/  
* _/ _/  
* _/_/ _/ STMicroelectronics 
* _/ _/  
* _/_/_/ _/  
* www.st.com  
*   
* 
*****************************************************
* Model Generated by STMicroelectronics *
* All Rights Reserved 	 *
* Commercial Use or Resale Restricted *
*****************************************************
* CREATION DATES: 16-05-2006  *
*    *
* POWER MOSFET Model (level 3)  *
*    *
* EXTERNAL PINS DESCRIPTION:  *
*    *
* PIN 1 -> Drain   *
* PIN 2 -> Gate   *
* PIN 3 -> Source   *
*    *
*  ****C****  *
* **********************  *
* *************************************** *
* PARAMETER MODELS EXTRACTED FROM MEASURED DATA *
* <<<<<<<<<<<>>>>>>>>>>> *
* *************************************** *
* THIS MODEL CAN BE USED AT TEMPERATURE: 25 °C *
*    *
*****************************************************
* MODELLING FOR STB11NM60_1
 
.SUBCKT STB11NM60_1 1 2 3
LG 2 4 7.5E-09 Rpar=10 Rser=0
LS 12 3 7.5E-09 Rpar=10 Rser=0
LD 6 1 4.5E-09 Rpar=10 Rser=0
RG 4 5 1.904
RS 9 12 0.157E-01
RD 7 6 0.247
RJ 8 7 0.312E-01
CGS 5 9 0.105E-08
CGD 7 10 0.114E-08
CK 11 7 0.197E-10
DGD 11 7 DGD
DBS 12 6 DBS
DBD 9 7 DBD
MOS 13 5 9 9 MOS L=1u W=1u
E1 10 5 101 0 1
E2 11 5 102 0 1
E3 8 13 POLY(2) 6 8 6 12 0 0 0 0 0.986E-01
G1 0 100 7 5 1u
D1 100 101 DID
D2 102 100 DID
R1 101 0 1MEG
R2 102 0 1MEG
 
.MODEL MOS NMOS
+ LEVEL=3
+ VTO=4.999
+ PHI=0.595
+ IS=0.1E-12
+ JS=0
+ THETA=0.669
+ KP=10.548
 
.MODEL DGD D
+ IS=0.1E-12
+ CJO=0.147E-10
+ VJ=0.769
+ M=0.352
.MODEL DBD D
+ IS=0.1E-12
+ CJO=0.537E-10
+ VJ=0.758
+ M=0.338
.MODEL DBS D
+ IS=0.1E-12
+ BV=644
+ N=1
+ TT=0.297E-06
+ RS=0.929E-01
.MODEL DID D
+ IS=0.01E-12
+ RS=0
+ BV=654
.ENDS STB11NM60_1
 
* END OF MODELLING
*
* _/_/_/_/_/_/  
* _/ _/  
* _/_/ _/ STMicroelectronics 
* _/ _/  
* _/_/_/ _/  
* www.st.com  
*   
* 
*****************************************************
* Model Generated by STMicroelectronics *
* All Rights Reserved 	 *
* Commercial Use or Resale Restricted *
*****************************************************
* CREATION DATES: 16-05-2006  *
*    *
* POWER MOSFET Model (level 3)  *
*    *
* EXTERNAL PINS DESCRIPTION:  *
*    *
* PIN 1 -> Drain   *
* PIN 2 -> Gate   *
* PIN 3 -> Source   *
*    *
*  ****C****  *
* **********************  *
* *************************************** *
* PARAMETER MODELS EXTRACTED FROM MEASURED DATA *
* <<<<<<<<<<<>>>>>>>>>>> *
* *************************************** *
* THIS MODEL CAN BE USED AT TEMPERATURE: 25 °C *
*    *
*****************************************************
* MODELLING FOR STB11NM60T4
 
.SUBCKT STB11NM60T4 1 2 3
LG 2 4 7.5E-09 Rpar=10 Rser=0
LS 12 3 7.5E-09 Rpar=10 Rser=0
LD 6 1 4.5E-09 Rpar=10 Rser=0
RG 4 5 1.904
RS 9 12 0.157E-01
RD 7 6 0.247
RJ 8 7 0.312E-01
CGS 5 9 0.105E-08
CGD 7 10 0.114E-08
CK 11 7 0.197E-10
DGD 11 7 DGD
DBS 12 6 DBS
DBD 9 7 DBD
MOS 13 5 9 9 MOS L=1u W=1u
E1 10 5 101 0 1
E2 11 5 102 0 1
E3 8 13 POLY(2) 6 8 6 12 0 0 0 0 0.986E-01
G1 0 100 7 5 1u
D1 100 101 DID
D2 102 100 DID
R1 101 0 1MEG
R2 102 0 1MEG
 
.MODEL MOS NMOS
+ LEVEL=3
+ VTO=4.999
+ PHI=0.595
+ IS=0.1E-12
+ JS=0
+ THETA=0.669
+ KP=10.548
 
.MODEL DGD D
+ IS=0.1E-12
+ CJO=0.147E-10
+ VJ=0.769
+ M=0.352
.MODEL DBD D
+ IS=0.1E-12
+ CJO=0.537E-10
+ VJ=0.758
+ M=0.338
.MODEL DBS D
+ IS=0.1E-12
+ BV=644
+ N=1
+ TT=0.297E-06
+ RS=0.929E-01
.MODEL DID D
+ IS=0.01E-12
+ RS=0
+ BV=654
.ENDS STB11NM60T4
 
* END OF MODELLING
*
* _/_/_/_/_/_/  
* _/ _/  
* _/_/ _/ STMicroelectronics 
* _/ _/  
* _/_/_/ _/  
* www.st.com  
*   
* 
*****************************************************
* Model Generated by STMicroelectronics *
* All Rights Reserved 	 *
* Commercial Use or Resale Restricted *
*****************************************************
* CREATION DATES: 28-04-2006  *
*    *
* POWER MOSFET Model (level 3)  *
*    *
* EXTERNAL PINS DESCRIPTION:  *
*    *
* PIN 1 -> Drain   *
* PIN 2 -> Gate   *
* PIN 3 -> Source   *
*    *
*  ****C****  *
* **********************  *
* *************************************** *
* PARAMETER MODELS EXTRACTED FROM MEASURED DATA *
* <<<<<<<<<<<>>>>>>>>>>> *
* *************************************** *
* THIS MODEL CAN BE USED AT TEMPERATURE: 25 °C *
*    *
***************************************************** 
* MODELLING FOR STB11NM80T4
 
.SUBCKT STB11NM80T4 1 2 3
LG 2 4 7.5n Rpar=10 Rser=0
LS 12 3 7.5n Rpar=10 Rser=0
LD 6 1 4.5n Rpar=6 Rser=0
RG 4 5 2.695
RS 9 12 0.185E-01
RD 7 6 0.312
RJ 8 7 0.513E-02
CGS 5 9 0.168E-08
CGD 7 10 0.166E-08
CK 11 7 0.204E-11
DGD 11 7 DGD
DBS 12 6 DBS
DBD 9 7 DBD
MOS 13 5 9 9 MOS L=1u W=1u
E1 10 5 101 0 1
E2 11 5 102 0 1
E3 8 13 POLY(2) 6 8 6 12 0 0 0 0 0.376E-01
G1 0 100 7 5 1u
D1 100 101 DID
D2 102 100 DID
R1 101 0 1MEG
R2 102 0 1MEG
 
.MODEL MOS NMOS
+ LEVEL=3
+ VTO=5.349
+ PHI=1.053
+ IS=0.1P
+ JS=0
+ THETA=0.299
+ KP=11.289
 
.MODEL DGD D
+ IS=0.1P
+ CJO=0.144E-09
+ VJ=0.752
+ M=0.339
.MODEL DBD D
+ IS=0.1P
+ CJO=0.651E-10
+ VJ=0.796
+ M=0.335
.MODEL DBS D
+ IS=0.1P
+ BV=875
+ N=1
+ TT=0.969E-06
+ RS=0.241E-01
.MODEL DID D
+ IS=0.01P
+ RS=0
+ BV=895

.ENDS STB11NM80T4
 
* END OF MODELLING
*
* _/_/_/_/_/_/  
* _/ _/  
* _/_/ _/ STMicroelectronics 
* _/ _/  
* _/_/_/ _/  
* www.st.com  
*   
* 
*****************************************************
* Model Generated by STMicroelectronics *
* All Rights Reserved 	 *
* Commercial Use or Resale Restricted *
*****************************************************
* CREATION DATES: 13-07-2006  *
*    *
* POWER MOSFET Model (level 3)  *
*    *
* EXTERNAL PINS DESCRIPTION:  *
*    *
* PIN 1 -> Drain   *
* PIN 2 -> Gate   *
* PIN 3 -> Source   *
*    *
*  ****C****  *
* **********************  *
* *************************************** *
* PARAMETER MODELS EXTRACTED FROM MEASURED DATA *
* <<<<<<<<<<<>>>>>>>>>>> *
* *************************************** *
* THIS MODEL CAN BE USED AT TEMPERATURE: 25 °C *
*    *
*****************************************************

* MODELLING FOR STB120NF10T4
 
.SUBCKT STB120NF10T4 1 2 3
LG 2 4 4.5n Rpar=10 Rser=0
LS 12 3 4.5n Rpar=10 Rser=0
LD 6 1 2.1n Rpar=10 Rser=0
RG 4 5 1.981
RS 9 12 0.729E-03
RD 7 6 0.584E-02
RJ 8 7 0.155E-03
CGS 5 9 0.584E-08
CGD 7 10 0.865E-08
CK 11 7 0.394E-09
DGD 11 7 DGD
DBS 12 6 DBS
DBD 9 7 DBD
MOS 13 5 9 9 MOS L=1u W=1u
E1 10 5 101 0 1
E2 11 5 102 0 1
E3 8 13 POLY(2) 6 8 6 12 0 0 0 0 0.752E-01
G1 0 100 7 5 1u
D1 100 101 DID
D2 102 100 DID
R1 101 0 1MEG
R2 102 0 1MEG
 
.MODEL MOS NMOS
+ LEVEL=3
+ VTO=3.699
+ PHI=0.906
+ IS=0.1P
+ JS=0
+ THETA=0.377E-01
+ KP=100.014
+ eta=0.331E-02
 
.MODEL DGD D
+ IS=0.1P
+ CJO=0.284E-11
+ VJ=0.732
+ M=0.344
.MODEL DBD D
+ IS=0.1P
+ CJO=0.351E-11
+ VJ=0.753
+ M=0.336
.MODEL DBS D
+ IS=0.1P
+ BV=112
+ N=1
+ TT=0.151E-06
+ RS=0.176E-01
.MODEL DID D
+ IS=0.01P
+ RS=0
+ BV=122
 
.ENDS STB120NF10T4
 
* END OF MODELLING
*
* _/_/_/_/_/_/  
* _/ _/  
* _/_/ _/ STMicroelectronics 
* _/ _/  
* _/_/_/ _/  
* www.st.com  
*   
* 
*****************************************************
* Model Generated by STMicroelectronics *
* All Rights Reserved 	 *
* Commercial Use or Resale Restricted *
*****************************************************
* CREATION DATES: 28-09-2006  *
*    *
* POWER MOSFET Model (level 3)  *
*    *
* EXTERNAL PINS DESCRIPTION:  *
*    *
* PIN 1 -> Drain   *
* PIN 2 -> Gate   *
* PIN 3 -> Source   *
*    *
*  ****C****  *
* **********************  *
* *************************************** *
* PARAMETER MODELS EXTRACTED FROM MEASURED DATA *
* <<<<<<<<<<<>>>>>>>>>>> *
* *************************************** *
* THIS MODEL CAN BE USED AT TEMPERATURE: 25 °C *
*    *
*****************************************************
* MODELLING FOR STB12NM50N
 
.SUBCKT STB12NM50N 1 2 3
LG 2 4 7.5E-09 Rpar=10 Rser=0
LS 12 3 7.5E-09 Rpar=10 Rser=0
LD 6 1 4.5E-09 Rpar=10 Rser=0
RG 4 5 4.476
RS 9 12 0.485E-01
RD 7 6 0.221
RJ 8 7 0.155E-05
CGS 5 9 0.106E-08
CGD 7 10 0.101E-08
CK 11 7 0.249E-10
DGD 11 7 DGD
DBS 12 6 DBS
DBD 9 7 DBD
MOS 13 5 9 9 MOS L=1u W=1u
E1 10 5 101 0 1
E2 11 5 102 0 1
E3 8 13 POLY(2) 6 8 6 12 0 0 0 0 0.122
G1 0 100 7 5 1u
D1 100 101 DID
D2 102 100 DID
R1 101 0 1MEG
R2 102 0 1MEG
 
.MODEL MOS NMOS
+ LEVEL=3
+ VTO=4.123
+ PHI=1.077
+ IS=0.1E-12
+ JS=0
+ THETA=0.269E-01
+ KP=29.653
 
.MODEL DGD D
+ IS=0.1E-12
+ CJO=0.442E-10
+ VJ=0.745
+ M=0.337
.MODEL DBD D
+ IS=0.1E-12
+ CJO=0.345E-10
+ VJ=0.807
+ M=0.321
.MODEL DBS D
+ IS=0.1E-12
+ BV=555
+ N=1
+ TT=0.419E-06
+ RS=0.622E-02
.MODEL DID D
+ IS=0.01E-12
+ RS=0
+ BV=565
.ENDS STB12NM50N

* END OF MODELLING
* MODELLING FOR STB12NM50T4
.SUBCKT STB12NM50T4 1 2 3
LG 2 4 7.5E-09 Rpar=10 Rser=0
LS 12 3 7.5E-09 Rpar=10 Rser=0
LD 6 1 4.5E-09 Rpar=10 Rser=0
RG 4 5 1.419
RS 9 12 0.149E-01
RD 7 6 0.136
RJ 8 7 0.667E-01
CGS 5 9 0.879E-09
CGD 7 10 0.981E-09
CK 11 7 0.206E-10
DGD 11 7 DGD
DBS 12 6 DBS
DBD 9 7 DBD
MOS 13 5 9 9 MOS L=1u W=1u
E1 10 5 101 0 1
E2 11 5 102 0 1
E3 8 13 POLY(2) 6 8 6 12 0 0 0 0 0.171
G1 0 100 7 5 1u
D1 100 101 DID
D2 102 100 DID
R1 101 0 1MEG
R2 102 0 1MEG
 
.MODEL MOS NMOS
+ LEVEL=3
+ VTO=4.999
+ PHI=0.631
+ IS=0.1E-12
+ JS=0
+ THETA=0.228
+ KP=5.001
 
.MODEL DGD D
+ IS=0.1E-12
+ CJO=0.219E-10
+ VJ=0.849
+ M=0.306
.MODEL DBD D
+ IS=0.1E-12
+ CJO=0.682E-10
+ VJ=0.824
+ M=0.387
.MODEL DBS D
+ IS=0.1E-12
+ BV=544
+ N=1
+ TT=0.188E-06
+ RS=0.798E-01
.MODEL DID D
+ IS=0.01E-12
+ RS=0
+ BV=554
.ENDS STB12NM50T4
 
* END OF MODELLING
*
* _/_/_/_/_/_/  
* _/ _/  
* _/_/ _/ STMicroelectronics 
* _/ _/  
* _/_/_/ _/  
* www.st.com  
*   
* 
*****************************************************
* Model Generated by STMicroelectronics *
* All Rights Reserved 	 *
* Commercial Use or Resale Restricted *
*****************************************************
* CREATION DATES: 17-10-2006  *
*    *
* POWER MOSFET Model (level 3)  *
*    *
* EXTERNAL PINS DESCRIPTION:  *
*    *
* PIN 1 -> Drain   *
* PIN 2 -> Gate   *
* PIN 3 -> Source   *
*    *
*  ****C****  *
* **********************  *
* *************************************** *
* PARAMETER MODELS EXTRACTED FROM MEASURED DATA *
* <<<<<<<<<<<>>>>>>>>>>> *
* *************************************** *
* THIS MODEL CAN BE USED AT TEMPERATURE: 25 °C *
*    *
***************************************************** 

* MODELLING FOR STB140NF55T4
 
.SUBCKT STB140NF55T4 1 2 3
LG 2 4 7.5n Rpar=10 Rser=0
LS 12 3 7.5n Rpar=10 Rser=0
LD 6 1 4.5n Rpar=6 Rser=0
RG 4 5 2.097
RS 9 12 0.694E-03
RD 7 6 0.203E-02
RJ 8 7 0.214E-03
CGS 5 9 0.454E-08
CGD 7 10 0.757E-08
CK 11 7 0.547E-09
DGD 11 7 DGD
DBS 12 6 DBS
DBD 9 7 DBD
MOS 13 5 9 9 MOS L=1u W=1u
E1 10 5 101 0 1
E2 11 5 102 0 1
E3 8 13 POLY(2) 6 8 6 12 0 0 0 0 0.433
G1 0 100 7 5 1u
D1 100 101 DID
D2 102 100 DID
R1 101 0 1MEG
R2 102 0 1MEG
 
.MODEL MOS NMOS
+ LEVEL=3
+ VTO=3.749
+ PHI=0.649
+ IS=0.1P
+ JS=0
+ THETA=0.173
+ KP=91.061
+ eta=0.409E-03
 
.MODEL DGD D
+ IS=0.1P
+ CJO=0.261E-11
+ VJ=0.701
+ M=0.348
.MODEL DBD D
+ IS=0.1P
+ CJO=0.284E-11
+ VJ=0.741
+ M=0.353
.MODEL DBS D
+ IS=0.1P
+ BV=72
+ N=1
+ TT=0.879E-07
+ RS=0.262E-01
.MODEL DID D
+ IS=0.01P
+ RS=0
+ BV=82

.ENDS STB140NF55T4

* END OF MODELLING
* MODELLING FOR STB140NF75T4
 
.SUBCKT STB140NF75T4 1 2 3
LG 2 4 7.5E-09 Rpar=10 Rser=0
LS 12 3 7.5E-09 Rpar=10 Rser=0
LD 6 1 4.5E-09 Rpar=10 Rser=0
RG 4 5 2.399
RS 9 12 0.159E-02
RD 7 6 0.108E-02
RJ 8 7 0.252E-02
CGS 5 9 0.382E-08
CGD 7 10 0.967E-08
CK 11 7 0.817E-09
DGD 11 7 DGD
DBS 12 6 DBS
DBD 9 7 DBD
MOS 13 5 9 9 MOS L=1u W=1u
E1 10 5 101 0 1
E2 11 5 102 0 1
E3 8 13 POLY(2) 6 8 6 12 0 0 0 0 0.285
G1 0 100 7 5 1u
D1 100 101 DID
D2 102 100 DID
R1 101 0 1MEG
R2 102 0 1MEG
 
.MODEL MOS NMOS
+ LEVEL=3
+ VTO=4.255
+ PHI=0.992
+ IS=0.1E-12
+ JS=0
+ THETA=0.693E-01
+ KP=187.771
+ ETA=0.436E-02
 
.MODEL DGD D
+ IS=0.1E-12
+ CJO=0.105E-10
+ VJ=0.748
+ M=0.374
.MODEL DBD D
+ IS=0.1E-12
+ CJO=0.543E-10
+ VJ=0.729
+ M=0.345
.MODEL DBS D
+ IS=0.1E-12
+ BV=76
+ N=1
+ TT=0.114E-06
+ RS=0.684E-02
.MODEL DID D
+ IS=0.01E-12
+ RS=0
+ BV=86
.ENDS STB140NF75T4
 
* END OF MODELLING

* MODELLING FOR STB150NF55T4
 
.SUBCKT STB150NF55T4 1 2 3
LG 2 4 7.5n Rpar=10 Rser=0
LS 12 3 7.5n Rpar=10 Rser=0
LD 6 1 4.5n Rpar=6 Rser=0
RG 4 5 2.795
RS 9 12 0.501E-04
RD 7 6 0.719E-03
RJ 8 7 0.631E-04
CGS 5 9 0.264E-08
CGD 7 10 0.989E-08
CK 11 7 0.224E-08
DGD 11 7 DGD
DBS 12 6 DBS
DBD 9 7 DBD
MOS 13 5 9 9 MOS L=1u W=1u
E1 10 5 101 0 1
E2 11 5 102 0 1
E3 8 13 POLY(2) 6 8 6 12 0 0 0 0 1.271
G1 0 100 7 5 1u
D1 100 101 DID
D2 102 100 DID
R1 101 0 1MEG
R2 102 0 1MEG
 
.MODEL MOS NMOS
+ LEVEL=3
+ VTO=4.679
+ PHI=0.847
+ IS=0.1P
+ JS=0
+ THETA=0.104E-02
+ KP=89.959
+ eta=0.521E-02
 
.MODEL DGD D
+ IS=0.1P
+ CJO=0.153E-12
+ VJ=0.777
+ M=0.367
.MODEL DBD D
+ IS=0.1P
+ CJO=0.164E-11
+ VJ=0.701
+ M=0.347
.MODEL DBS D
+ IS=0.1P
+ BV=66
+ N=1
+ TT=0.996E-07
+ RS=0.194E-01
.MODEL DID D
+ IS=0.01P
+ RS=0
+ BV=76

.ENDS STB150NF55T4

* END OF MODELLING
*
* _/_/_/_/_/_/  
* _/ _/  
* _/_/ _/ STMicroelectronics 
* _/ _/  
* _/_/_/ _/  
* www.st.com  
*   
* 
*****************************************************
* Model Generated by STMicroelectronics *
* All Rights Reserved 	 *
* Commercial Use or Resale Restricted *
*****************************************************
* CREATION DATES: 30-11-2009  *
*    *
* POWER MOSFET Model (level 3)  *
*    *
* EXTERNAL PINS DESCRIPTION:  *
*    *
* PIN 1 -> Drain   *
* PIN 2 -> Gate   *
* PIN 3 -> Source   *
*    *
*  ****C****  *
* **********************  *
* *************************************** *
* PARAMETER MODELS EXTRACTED FROM MEASURED DATA *
* <<<<<<<<<<<>>>>>>>>>>> *
* *************************************** *
* THIS MODEL CAN BE USED AT TEMPERATURE: 25 °C *
*    *
*****************************************************

* MODELLING FOR STB15NM60ND
 
.SUBCKT STB15NM60ND 1 2 3
LG 2 4 7.5E-09 Rpar=10 Rser=0
LS 12 3 7.5E-09 Rpar=10 Rser=0
LD 6 1 4.5E-09 Rpar=10 Rser=0
RG 4 5 4.023
RS 9 12 0.554E-01
RD 7 6 0.173
RJ 8 7 0.206E-04
CGS 5 9 0.108E-08
CGD 7 10 0.238E-08
CK 11 7 0.236E-10
DGD 11 7 DGD
DBS 12 6 DBS
DBD 9 7 DBD
MOS 13 5 9 9 MOS L=1u W=1u
E1 10 5 101 0 1
E2 11 5 102 0 1
E3 8 13 POLY(2) 6 8 6 12 0 0 0 0 0.112
G1 0 100 7 5 1u
D1 100 101 DID
D2 102 100 DID
R1 101 0 1MEG
R2 102 0 1MEG
 
.MODEL MOS NMOS
+ LEVEL=3
+ VTO=5.357
+ PHI=0.815
+ IS=0.1E-12
+ JS=0
+ THETA=0.113E-03
+ KP=49.728
+ ETA=0.101E-05
 
.MODEL DGD D
+ IS=0.1E-12
+ CJO=0.891E-11
+ VJ=0.831
+ M=0.358
.MODEL DBD D
+ IS=0.1E-12
+ CJO=0.997E-09
+ VJ=0.817
+ M=0.201
.MODEL DBS D
+ IS=0.1E-12
+ BV=635
+ N=1
+ TT=0.188E-06
+ RS=0.799E-02
.MODEL DID D
+ IS=0.01E-12
+ RS=0
+ BV=650
.ENDS STB15NM60ND
 
* END OF MODELLING
*
* _/_/_/_/_/_/  
* _/ _/  
* _/_/ _/ STMicroelectronics 
* _/ _/  
* _/_/_/ _/  
* www.st.com  
*   
* 
*****************************************************
* Model Generated by STMicroelectronics *
* All Rights Reserved 	 	 *
* Commercial Use or Resale Restricted *
*****************************************************
* CREATION DATES: 13-02-2008  *
*    *
* POWER MOSFET Model (level 3)  *
*    *
* EXTERNAL PINS DESCRIPTION:  *
*    *
* PIN 1 -> Drain   *
* PIN 2 -> Gate   *
* PIN 3 -> Source   *
*    *
*  ****C****  *
* **********************  *
* *************************************** *
* PARAMETER MODELS EXTRACTED FROM MEASURED DATA *
* <<<<<<<<<<<>>>>>>>>>>> *
* *************************************** *
* THIS MODEL CAN BE USED AT TEMPERATURE: 25 °C *
*    *
*****************************************************

* MODELLING FOR STB160N75F3
 
.SUBCKT STB160N75F3 1 2 3
LG 2 4 7.5E-09 Rpar=10 Rser=0
LS 12 3 7.5E-09 Rpar=10 Rser=0
LD 6 1 4.5E-09 Rpar=10 Rser=0
RG 4 5 4.399
RS 9 12 0.636E-03
RD 7 6 0.221E-02
RJ 8 7 0.112E-03
CGS 5 9 0.454E-08
CGD 7 10 0.196E-08
CK 11 7 0.546E-09
DGD 11 7 DGD
DBS 12 6 DBS
DBD 9 7 DBD
MOS 13 5 9 9 MOS L=1u W=1u
E1 10 5 101 0 1
E2 11 5 102 0 1
E3 8 13 POLY(2) 6 8 6 12 0 0 0 0 0.992E-01
G1 0 100 7 5 1u
D1 100 101 DID
D2 102 100 DID
R1 101 0 1MEG
R2 102 0 1MEG
 
.MODEL MOS NMOS
+ LEVEL=3
+ VTO=4.071
+ PHI=0.837
+ IS=0.1E-12
+ JS=0
+ THETA=0.726E-02
+ KP=347.458
+ ETA=0.499E-02
 
.MODEL DGD D
+ IS=0.1E-12
+ CJO=0.248E-10
+ VJ=0.821
+ M=0.596
.MODEL DBD D
+ IS=0.1E-12
+ CJO=0.917E-10
+ VJ=0.955
+ M=0.258
.MODEL DBS D
+ IS=0.1E-12
+ BV=80
+ N=1
+ TT=0.734E-07
+ RS=0.295E-02
.MODEL DID D
+ IS=0.01E-12
+ RS=0
+ BV=85
.ENDS STB160N75F3
 
* END OF MODELLING
* MODELLING FOR STB16NF06LT4
 
.SUBCKT STB16NF06LT4 1 2 3
LG 2 4 7.5E-09 Rpar=10 Rser=0
LS 12 3 7.5E-09 Rpar=10 Rser=0
LD 6 1 4.5E-09 Rpar=10 Rser=0
RG 4 5 4.995
RS 9 12 0.101E-02
RD 7 6 0.351E-01
RJ 8 7 0.101E-02
CGS 5 9 0.564E-09
CGD 7 10 0.743E-09
CK 11 7 0.308E-10
DGD 11 7 DGD
DBS 12 6 DBS
DBD 9 7 DBD
MOS 13 5 9 9 MOS L=1u W=1u
E1 10 5 101 0 1
E2 11 5 102 0 1
E3 8 13 POLY(2) 6 8 6 12 0 0 0 0 0.691
G1 0 100 7 5 1u
D1 100 101 DID
D2 102 100 DID
R1 101 0 1MEG
R2 102 0 1MEG
 
.MODEL MOS NMOS
+ LEVEL=3
+ VTO=1.922
+ PHI=0.933
+ IS=0.1E-12
+ JS=0
+ THETA=0.101E-01
+ KP=16.247
 
.MODEL DGD D
+ IS=0.1E-12
+ CJO=0.104E-10
+ VJ=0.718
+ M=0.357
.MODEL DBD D
+ IS=0.1E-12
+ CJO=0.232E-10
+ VJ=0.742
+ M=0.327
.MODEL DBS D
+ IS=0.1E-12
+ BV=69
+ N=1
+ TT=0.501E-07
+ RS=0.349E-02
.MODEL DID D
+ IS=0.01E-12
+ RS=0
+ BV=79
.ENDS STB16NF06LT4

* END OF MODELLING
* MODELLING FOR STB16NS25T4
 
.SUBCKT STB16NS25T4 1 2 3
LG 2 4 7.5E-09 Rpar=10 Rser=0
LS 12 3 7.5E-09 Rpar=10 Rser=0
LD 6 1 4.5E-09 Rpar=10 Rser=0
RG 4 5 3.398
RS 9 12 0.295E-02
RD 7 6 0.179
RJ 8 7 0.999E-02
CGS 5 9 0.146E-08
CGD 7 10 0.381E-08
CK 11 7 0.648E-10
DGD 11 7 DGD
DBS 12 6 DBS
DBD 9 7 DBD
MOS 13 5 9 9 MOS L=1u W=1u
E1 10 5 101 0 1
E2 11 5 102 0 1
E3 8 13 POLY(2) 6 8 6 12 0 0 0 0 0.112
G1 0 100 7 5 1u
D1 100 101 DID
D2 102 100 DID
R1 101 0 1MEG
R2 102 0 1MEG
 
.MODEL MOS NMOS
+ LEVEL=3
+ VTO=3.426
+ PHI=0.847
+ IS=0.1E-12
+ JS=0
+ THETA=0.433E-01
+ KP=17.707
 
.MODEL DGD D
+ IS=0.1E-12
+ CJO=0.263E-10
+ VJ=0.936
+ M=0.337
.MODEL DBD D
+ IS=0.1E-12
+ CJO=0.999E-09
+ VJ=1.099
+ M=0.201
.MODEL DBS D
+ IS=0.1E-12
+ BV=265
+ N=1
+ TT=0.255E-06
+ RS=0.122E-01
.MODEL DID D
+ IS=0.01E-12
+ RS=0
+ BV=275
.ENDS STB16NS25T4

* END OF MODELLING
*
* _/_/_/_/_/_/  
* _/ _/  
* _/_/ _/ STMicroelectronics 
* _/ _/  
* _/_/_/ _/  
* www.st.com  
*   
* 
*****************************************************
* Model Generated by STMicroelectronics *
* All Rights Reserved 	 *
* Commercial Use or Resale Restricted *
*****************************************************
* CREATION DATES: 24-10-2008  *
*    *
* POWER MOSFET Model (level 3)  *
*    *
* EXTERNAL PINS DESCRIPTION:  *
*    *
* PIN 1 -> Drain   *
* PIN 2 -> Gate   *
* PIN 3 -> Source   *
*    *
*  ****C****  *
* **********************  *
* *************************************** *
* PARAMETER MODELS EXTRACTED FROM MEASURED DATA *
* <<<<<<<<<<<>>>>>>>>>>> *
* *************************************** *
* THIS MODEL CAN BE USED AT TEMPERATURE: 25 °C *
*    *
*****************************************************
 
.SUBCKT STB185N55F3 1 2 3
LG 2 4 4.5n Rpar=10 Rser=0
LS 12 3 4.5n Rpar=10 Rser=0
LD 6 1 2.1n Rpar=10 Rser=0
RG 4 5 4.6
RS 9 12 0.199E-03
RD 7 6 0.103E-02
RJ 8 7 0.544E-04
CGS 5 9 0.436E-08
CGD 7 10 0.626E-08
CK 11 7 0.203E-10
DGD 11 7 DGD
DBS 12 6 DBS
DBD 9 7 DBD
MOS 13 5 9 9 MOS L=1u W=1u
E1 10 5 101 0 1
E2 11 5 102 0 1
E3 8 13 POLY(2) 6 8 6 12 0 0 0 0 0.169
G1 0 100 7 5 1u
D1 100 101 DID
D2 102 100 DID
R1 101 0 1MEG
R2 102 0 1MEG
 
.MODEL MOS NMOS
+ LEVEL=3
+ VTO=4.649
+ PHI=0.937
+ IS=0.1P
+ JS=0
+ THETA=0.276
+ KP=309
+ eta=0.175E-02
 
.MODEL DGD D
+ IS=0.1P
+ CJO=0.194E-09
+ VJ=0.822
+ M=0.342
.MODEL DBD D
+ IS=0.1P
+ CJO=0.168E-10
+ VJ=0.655
+ M=0.349
.MODEL DBS D
+ IS=0.1P
+ BV=62
+ N=1
+ TT=0.623E-07
+ RS=0.231E-01
.MODEL DID D
+ IS=0.01P
+ RS=0
+ BV=67
 
.ENDS STB185N55F3
 
* END OF MODELLING
*
* _/_/_/_/_/_/  
* _/ _/  
* _/_/ _/ STMicroelectronics 
* _/ _/  
* _/_/_/ _/  
* www.st.com  
*   
* 
*****************************************************
* Model Generated by STMicroelectronics *
* All Rights Reserved 	 *
* Commercial Use or Resale Restricted *
*****************************************************
* CREATION DATES: 15-11-2007  *
*    *
* POWER MOSFET Model (level 3)  *
*    *
* EXTERNAL PINS DESCRIPTION:  *
*    *
* PIN 1 -> Drain   *
* PIN 2 -> Gate   *
* PIN 3 -> Source   *
*    *
*  ****C****  *
* **********************  *
* *************************************** *
* PARAMETER MODELS EXTRACTED FROM MEASURED DATA *
* <<<<<<<<<<<>>>>>>>>>>> *
* *************************************** *
* THIS MODEL CAN BE USED AT TEMPERATURE: 25 °C *
*    *
*****************************************************

.SUBCKT STB19NF20 1 2 3
LG 2 4 7.5n Rpar=10 Rser=0
LS 12 3 7.5n Rpar=10 Rser=0
LD 6 1 4.5n Rpar=6 Rser=0
RG 4 5 1.4
RS 9 12 0.582E-02
RD 7 6 0.458E-01
RJ 8 7 0.655E-02
CGS 5 9 0.559E-09
CGD 7 10 0.119E-08
CK 11 7 0.172E-09
DGD 11 7 DGD
DBS 12 6 DBS
DBD 9 7 DBD
MOS 13 5 9 9 MOS L=1u W=1u
E1 10 5 101 0 1
E2 11 5 102 0 1
E3 8 13 POLY(2) 6 8 6 12 0 0 0 0 0.332
G1 0 100 7 5 1u
D1 100 101 DID
D2 102 100 DID
R1 101 0 1MEG
R2 102 0 1MEG

 
.MODEL MOS NMOS
+ LEVEL=3
+ VTO=3.817
+ PHI=0.839
+ IS=0.1P
+ JS=0
+ THETA=0.408
+ KP=25.551
+ eta=0.997E-03
 
.MODEL DGD D
+ IS=0.1P
+ CJO=0.181E-11
+ VJ=0.607
+ M=0.311
.MODEL DBD D
+ IS=0.1P
+ CJO=0.278E-10
+ VJ=0.967
+ M=0.347
.MODEL DBS D
+ IS=0.1P
+ BV=218
+ N=1
+ TT=0.148E-06
+ RS=0.981E-01
.MODEL DID D
+ IS=0.1P
+ RS=0
+ BV=228

.ENDS STB19NF20 

* END OF MODELLING

.SUBCKT STB200N4F3 1 2 3

LG 2 4 4.5n Rpar=10 Rser=0

LS 12 3 4.5n Rpar=10 Rser=0

LD 6 1 2.1n Rpar=10 Rser=0

RG 4 5 5.299

RS 9 12 0.297E-03

RD 7 6 0.192E-02

RJ 8 7 0.133E-04

CGS 5 9 0.431E-08

CGD 7 10 0.254E-08

CK 11 7 0.339E-09

DGD 11 7 DGD

DBS 12 6 DBS

DBD 9 7 DBD

MOS 13 5 9 9 MOS L=1u W=1u                        

E1 10 5 101 0 1

E2 11 5 102 0 1

E3 8 13 POLY(2) 6 8 6 12 0 0 0 0 0.282

G1 0 100 7 5 1u

D1 100 101 DID

D2 102 100 DID

R1 101 0 1MEG

R2 102 0 1MEG
 

.MODEL MOS NMOS
+ LEVEL=3


+ VTO=3.869
+ PHI=0.891
+ IS=0.1P
+ JS=0
+ THETA=0.455E-01
+ eta=0.199E-02
+  kp=299.647
.MODEL DGD D
+ IS=0.1P
+ CJO=0.381E-12
+ VJ=0.724
+ M=0.327

.MODEL DBD D
+ IS=0.1P
+ CJO=0.237E-12
+ VJ=0.615
+ M=0.375

.MODEL DBS D
+ IS=0.1P
+ BV=44
+ N=1
+ TT=6.701E-08
+ RS=0.263E-01

.MODEL DID D
+ IS=0.01P
+ RS=0
+ BV=47
 

.ENDS STB200N4F3
 
 
.SUBCKT STB200NF04T4 1 2 3
LG 2 4 7.5n Rpar=10 Rser=0
LS 12 3 2.1n Rpar=10 Rser=0
LD 6 1 4.5n Rpar=6 Rser=0
RG 4 5 2.299
RS 9 12 0.883E-04
RD 7 6 0.451E-03
RJ 8 7 0.192E-04
CGS 5 9 0.469E-08
CGD 7 10 0.891E-08
CK 11 7 0.168E-08
DGD 11 7 DGD
DBS 12 6 DBS
DBD 9 7 DBD
MOS 13 5 9 9 MOS L=1u W=1u
E1 10 5 101 0 1
E2 11 5 102 0 1
E3 8 13 POLY(2) 6 8 6 12 0 0 0 0 0.995
G1 0 100 7 5 1u
D1 100 101 DID
D2 102 100 DID
R1 101 0 1MEG
R2 102 0 1MEG
 
.MODEL MOS NMOS
+ LEVEL=3
+ VTO=3.584
+ PHI=0.838
+ IS=0.1P
+ JS=0
+ THETA=0.743E-02
+ KP=119.563
+ eta=0.985E-02
 
.MODEL DGD D
+ IS=0.1P
+ CJO=0.234E-11
+ VJ=0.741
+ M=0.345
.MODEL DBD D
+ IS=0.1P
+ CJO=0.177E-11
+ VJ=0.748
+ M=0.343
.MODEL DBS D
+ IS=0.1P
+ BV=44
+ N=1
+ TT=0.829E-07
+ RS=0.103E-01
.MODEL DID D
+ IS=0.01P
+ RS=0
+ BV=52

.ENDS STB200NF04T4

* CREATION DATES: 25-09-2009  *
*    *
* POWER MOSFET Model (level 3)  *
*    *
* EXTERNAL PINS DESCRIPTION:  *
*    *
* PIN 1 -> Drain   *
* PIN 2 -> Gate   *
* PIN 3 -> Source   *
*    *
*  ****C****  *
* **********************  *
* *************************************** *
* PARAMETER MODELS EXTRACTED FROM MEASURED DATA *
* <<<<<<<<<<<>>>>>>>>>>> *
* *************************************** *
* THIS MODEL CAN BE USED AT TEMPERATURE: 25 °C *
*    *
*****************************************************
 
.SUBCKT STB21NK50Z 1 2 3
LG 2 4 4.5n Rpar=10 Rser=0
LS 12 3 4.5n Rpar=10 Rser=0
LD 6 1 2.1n Rpar=10 Rser=0
RG 4 5 1.8
RS 9 12 0.101E-02
RD 7 6 0.168
RJ 8 7 0.204E-01
CGS 5 9 0.245E-08
CGD 7 10 0.374E-08
CK 11 7 0.665E-10
DGD 11 7 DGD
DBS 12 6 DBS
DBD 9 7 DBD
MOS 13 5 9 9 MOS L=1u W=1u
E1 10 5 101 0 1
E2 11 5 102 0 1
E3 8 13 POLY(2) 6 8 6 12 0 0 0 0 0.562E-01
G1 0 100 7 5 1u
D1 100 101 DID
D2 102 100 DID
R1 101 0 1MEG
R2 102 0 1MEG
DZGS1 15 4 DZGS
DZGS2 15 12 DZGS
 
.MODEL MOS NMOS
+ LEVEL=3
+ VTO=4.151
+ PHI=0.849
+ IS=0.1P
+ JS=0
+ THETA=0.101
+ KP=17.999
+ eta=0.108E-03
 
.MODEL DGD D
+ IS=0.1P
+ CJO=0.338E-10
+ VJ=0.778
+ M=0.325
.MODEL DBD D
+ IS=0.1P
+ CJO=0.259E-12
+ VJ=0.758
+ M=0.366
.MODEL DBS D
+ IS=0.1P
+ BV=533
+ N=1
+ TT=0.441E-06
+ RS=0.627E-01
.MODEL DID D
+ IS=0.01P
+ RS=0
+ BV=542
.MODEL DZGS D
+ IS=0.01P
+ RS=50
+ BV=41
 
.ENDS STB21NK50Z
 
* END OF MODELLING
*
* _/_/_/_/_/_/  
* _/ _/  
* _/_/ _/ STMicroelectronics 
* _/ _/  
* _/_/_/ _/  
* www.st.com  
*   
* 
*****************************************************
* Model Generated by STMicroelectronics *
* All Rights Reserved 	 *
* Commercial Use or Resale Restricted *
*****************************************************
* CREATION DATES: 30-11-2009  *
*    *
* POWER MOSFET Model (level 3)  *
*    *
* EXTERNAL PINS DESCRIPTION:  *
*    *
* PIN 1 -> Drain   *
* PIN 2 -> Gate   *
* PIN 3 -> Source   *
*    *
*  ****C****  *
* **********************  *
* *************************************** *
* PARAMETER MODELS EXTRACTED FROM MEASURED DATA *
* <<<<<<<<<<<>>>>>>>>>>> *
* *************************************** *
* THIS MODEL CAN BE USED AT TEMPERATURE: 25 °C *
*    *
*****************************************************

* MODELLING FOR STB21NM60ND
 
.SUBCKT STB21NM60ND 1 2 3