.SUBCKT 2N7000 1 2 3
* 1=drain  2=gate  3=source
Cgs  6 3 12.3e-12
Cgd1 6 4 27.4e-12
Cgd2 1 4 6e-12
M1 5 6 3 3 MOST1
M2 4 6 5 3 MOST2
D1 3 1 Dbody
Rd 5 1 Rtemp 2.3
Rg 2 6 15
.MODEL MOST1 NMOS (LEVEL=3 W=0.1 L=0.3e-6 Vto=2.014 Kp=3.09e-7
+                          RS=0 RD=0 UO=650 VMAX=0 XJ=0.5E-6 KAPPA=10E-2
+                          ETA=3e-6 TPG=1 IS=0 LD=0 WD=0 CGSO=0 CGDO=0
+                          CGBO=0 NFS=4.9e12 DELTA=0.1)
.MODEL MOST2 NMOS (LEVEL=3 W=0.1 L=0.3e-6 Vto=-5.69 Kp=0.315e-5 
+                          RS=1000 RD=1000 UO=650 VMAX=0 XJ=0.5E-6 KAPPA=10E-2
+                          ETA=3e-6 TPG=1 IS=0 LD=0 WD=0 CGSO=0 CGDO=0
+                          CGBO=0 NFS=0 DELTA=0.1)
.MODEL Dbody D(Is=1e-14 N=0.88 Rs=0.7 Ikf=1e3 Cjo=0 M=0.5 Vj=0.4 
+                          Bv=60 Ibv=10e-6 Tt=50e-9)
.MODEL Rtemp RES(TC1=5.61e-3 TC2=2.23e-5)
.ENDS
.SUBCKT 2N7002 1 2 3
* 1=drain  2=gate  3=source
Cgs  6 3 12.3e-12
Cgd1 6 4 27.4e-12
Cgd2 1 4 6e-12
M1 5 6 3 3 MOST1
M2 4 6 5 3 MOST2
D1 3 1 Dbody
Rd 5 1 Rtemp 2.3
Rg 2 6 15
.MODEL MOST1 NMOS (LEVEL=3 W=0.1 L=0.3e-6 Vto=2.014 Kp=3.09e-7
+                          RS=0 RD=0 UO=650 VMAX=0 XJ=0.5E-6 KAPPA=10E-2
+                          ETA=3e-6 TPG=1 IS=0 LD=0 WD=0 CGSO=0 CGDO=0
+                          CGBO=0 NFS=4.9e12 DELTA=0.1)
.MODEL MOST2 NMOS (LEVEL=3 W=0.1 L=0.3e-6 Vto=-5.69 Kp=0.315e-5 
+                          RS=1000 RD=1000 UO=650 VMAX=0 XJ=0.5E-6 KAPPA=10E-2
+                          ETA=3e-6 TPG=1 IS=0 LD=0 WD=0 CGSO=0 CGDO=0
+                          CGBO=0 NFS=0 DELTA=0.1)
.MODEL Dbody D(Is=1e-14 N=0.88 Rs=0.7 Ikf=1e3 Cjo=0 M=0.5 Vj=0.4 
+                          Bv=60 Ibv=10e-6 Tt=50e-9)
.MODEL Rtemp RES(TC1=5.61e-3 TC2=2.23e-5)
.ENDS
.SUBCKT BS170PLP 1 2 3
* 1=drain  2=gate  3=source
Cgs  2 3 12.3E-12
Cgd1 2 4 27.4E-12
Cgd2 1 4 6E-12
M1 1 2 3 3 MOST1
M2 4 2 1 3 MOST2
D1 3 1 Dbody
.MODEL MOST1 NMOS(Level=3 Kp=20.78u W=9.7m L=2u Rs=20m Vto=2 Rd=1.186)
.MODEL MOST2 NMOS(VTO=-4.73 Kp=20.78u W=9.7m L=2u Rs=20m)
.MODEL Dbody D(Is=125f N=1.023 Rs=1.281 Ikf=18.01 Cjo=46.3p M=.3423
+            Vj=.4519 Bv=60 Ibv=10u Tt=161.6n)
.ENDS
.SUBCKT BSH103 1 2 3
* 1=drain  2=gate  3=source
Cgs  6 3 57.3e-12
Cgd1 6 4 260e-12
Cgd2 1 4 14e-12
M1 5 6 3 3 MOST1
M2 4 6 5 3 MOST2
D1 3 1 Dbody
Rd 5 1 Rtemp 185e-3
Rg 2 6 60
.MODEL MOST1 NMOS (LEVEL=3 W=0.1 L=0.3e-6 Vto=0.737 Kp=0.606e-5
+                          RS=0 RD=0 UO=650 VMAX=0 XJ=0.5E-6 KAPPA=10E-2
+                          ETA=5e-5 TPG=1 IS=0 LD=0 WD=0 CGSO=0 CGDO=0
+                          CGBO=0 NFS=0.3e12 DELTA=0.1)
.MODEL MOST2 NMOS (LEVEL=3 W=0.1 L=0.3e-6 Vto=-2.92 Kp=0.606e-5
+                          RS=1000 RD=1000 UO=650 VMAX=0 XJ=0.5E-6 KAPPA=10E-2
+                          ETA=5e-5 TPG=1 IS=0 LD=0 WD=0 CGSO=0 CGDO=0
+                          CGBO=0 NFS=0 DELTA=0.1)
.MODEL Dbody D(Is=1e-14 N=0.9 Rs=0.115 Ikf=1e3 Cjo=0 M=0.5 Vj=0.4
+                          Bv=30 Ibv=10e-6 Tt=30e-9)
.MODEL Rtemp RES(TC1=3.9e-3 TC2=6.1e-6)
.ENDS
.SUBCKT BSH105 1 2 3
* 1=drain  2=gate  3=source
Cgs  6 3 92e-12
Cgd1 6 4 541e-12
Cgd2 1 4 27.5e-12
M1 5 6 3 3 MOST1
M2 4 6 5 3 MOST2
D1 3 1 Dbody
Rd 5 1 Rtemp 50e-3
Rg 2 6 90
.MODEL MOST1 NMOS (LEVEL=3 W=0.1 L=0.3e-6 Vto=0.914 Kp=1.21e-5
+                          RS=0 RD=0 UO=650 VMAX=0 XJ=0.5E-6 KAPPA=10E-2
+                          ETA=5e-5 TPG=1 IS=0 LD=0 WD=0 CGSO=0 CGDO=0
+                          CGBO=0 NFS=1.17e12 DELTA=0.1)
.MODEL MOST2 NMOS (LEVEL=3 W=0.1 L=0.3e-6 Vto=-3.23 Kp=1.21e-5
+                          RS=1000 RD=1000 UO=650 VMAX=0 XJ=0.5E-6 KAPPA=10E-2
+                          ETA=5e-5 TPG=1 IS=0 LD=0 WD=0 CGSO=0 CGDO=0
+                          CGBO=0 NFS=0 DELTA=0.1)
.MODEL Dbody D(Is=1e-14 N=0.9 Rs=0.044 Ikf=1e3 Cjo=0 M=0.5 Vj=0.4
+                          Bv=20 Ibv=10e-6 Tt=20e-9)
.MODEL Rtemp RES(TC1=3.9e-3 TC2=6.1e-6)
.ENDS
.SUBCKT BSN20 1 2 3
* 1=drain  2=gate  3=source
Cgs  2 3 6E-12
Cgd1 2 4 16.5E-12
Cgd2 1 4 2E-12
M1 1 2 3 3 MOST1
M2 4 2 1 3 MOST2
D1 3 1 Dbody
.MODEL MOST1 NMOS(Level=3 Kp=20.71u W=3.1m L=2u Rs=20m Vto=1 Rd=3.231)
.MODEL MOST2 NMOS(VTO=-5 Kp=20.71u W=3.1m L=2u Rs=20m)
.MODEL Dbody D(Is=56.31f N=1.084 Rs=467m Cjo=19.08p M=357.6m Vj=407.9m
+            Bv=50 Ibv=10u Tt=100n)
.ENDS
.SUBCKT BSN254   10 20 40
* 10=drain  20=gate  40=source
M1   1  2  3  3  DMOS L=1U W=1U
RD  10  1  2.85
RS  30  3  .151
RG  20  2  5
CGS  2  3  60P
EGD 12  0  2  1  1
VFB 14  0  0
FFB  2  1  VFB  1
CGD 13 14  64.2P
R1  13  0  1
D1  12 13  DLIM
DDG 15 14  DCGD
R2  12 15  1
D2  15  0  DLIM
DSD  3 10  DSUB
LS  30 40  3N
.MODEL DMOS NMOS (LEVEL=3 THETA=80M VMAX=521K ETA=2M VTO=1.4 KP=.52)
.MODEL DCGD D (CJO=64.2P VJ=.6 M=.68)
.MODEL DSUB D (IS=1.45N N=1.5 RS=1.35 BV=250 CJO=64.5P VJ=.8 M=.42 TT=102N)
.MODEL DLIM D (IS=100U)
.ENDS
.SUBCKT BSN254A   10 20 40
* 10=drain  20=gate  40=source
M1   1  2  3  3  DMOS L=1U W=1U
RD  10  1  2.85
RS  30  3  .151
RG  20  2  5
CGS  2  3  60P
EGD 12  0  2  1  1
VFB 14  0  0
FFB  2  1  VFB  1
CGD 13 14  64.2P
R1  13  0  1
D1  12 13  DLIM
DDG 15 14  DCGD
R2  12 15  1
D2  15  0  DLIM
DSD  3 10  DSUB
LS  30 40  3N
.MODEL DMOS NMOS (LEVEL=3 THETA=80M VMAX=521K ETA=2M VTO=1.4 KP=.52)
.MODEL DCGD D (CJO=64.2P VJ=.6 M=.68)
.MODEL DSUB D (IS=1.45N N=1.5 RS=1.35 BV=250 CJO=64.5P VJ=.8 M=.42 TT=102N)
.MODEL DLIM D (IS=100U)
.ENDS
.SUBCKT BSN304 1 2 3
* 1=drain  2=gate  3=source
Cgs  2 3 40.5E-12
Cgd1 2 4 135.8E-12
Cgd2 1 4 2.6E-12
M1 1 2 3 3 MOST1
M2 4 2 1 3 MOST2
D1 3 1 Dbody
.MODEL MOST1 NMOS(Level=3 Kp=20.95E-6 W=28E-3 L=2E-6 Rs=20E-3 Vto=1.5 Rd=6.276)
.MODEL MOST2 NMOS(Vto=-3.8 Kp=20.95E-6 W=28E-3 L=2E-6 Rs=20E-3)
.MODEL Dbody D(Is=7.368E-12 N=1.072 Rs=.8316 Ikf=0 Cjo=150.3E-12 M=.5682
+              Vj=.3644 Bv=300 Ibv=10E-6 Tt=432.8E-9)
.ENDS
.SUBCKT BSN304A 1 2 3
* 1=drain  2=gate  3=source
Cgs  2 3 40.5E-12
Cgd1 2 4 135.8E-12
Cgd2 1 4 2.6E-12
M1 1 2 3 3 MOST1
M2 4 2 1 3 MOST2
D1 3 1 Dbody
.MODEL MOST1 NMOS(Level=3 Kp=20.95E-6 W=28E-3 L=2E-6 Rs=20E-3 Vto=1.5 Rd=6.276)
.MODEL MOST2 NMOS(Vto=-3.8 Kp=20.95E-6 W=28E-3 L=2E-6 Rs=20E-3)
.MODEL Dbody D(Is=7.368E-12 N=1.072 Rs=.8316 Ikf=0 Cjo=150.3E-12 M=.5682
+              Vj=.3644 Bv=300 Ibv=10E-6 Tt=432.8E-9)
.ENDS
.SUBCKT BSP100 1 2 3
* 1=drain  2=gate  3=source
Cgs  6 3 190E-12
Cgd1 6 4 409E-12
Cgd2 1 4 50E-12
M1 5 6 3 3 MOST1
M2 4 6 5 3 MOST2
D1 3 5 Dbody
Rd 5 1 Rtemp 11e-3
Rg 2 6 22
.MODEL MOST1 NMOS(Level=3 Vto=1.6 Kp=1.8e-7 Eta=3e-6 W=1 L=0.1e-6
+                Rs=0 Rd=0 Ld=0 Wd=0 Uo=500 Vmax=4e7 
+                Xj=5e-7 Kappa=0.08 Nfs=3e12 Theta=5e-3 Tpg=1
+                Cgbo=0 Cgso=0 Cgdo=0 Delta=0.1 Is=0)
.MODEL MOST2 NMOS(Level=3 Vto=-3.9 Kp=1.8e-7 Eta=3e-6 W=7e-5 L=0.1e-6
+                Rs=0 Rd=0 Ld=0 Wd=0 Uo=500 Vmax=0 
+                Xj=0 Kappa=0.2 Nfs=0 Theta=0 Tpg=1
+                Cgbo=0 Cgso=0 Cgdo=0 Delta=0 Is=0)
.MODEL Dbody D(Is=1e-14 N=0.9 Rs=35e-3 Ikf=1e3 Cjo=0 M=0.5 Vj=0.4 
+                Bv=30 Ibv=10e-6 Tt=40e-9)
.MODEL Rtemp RES(TC1=4.3e-3 TC2=4e-6)
.ENDS
.SUBCKT BSP110   10 20 40
* 10=drain  20=gate  40=source
M1   1  2  3  3  DMOS L=1U W=1U
RD  10  1  2.13
RS  30  3  .113
RG  20  2  4.61
CGS  2  3  12P
EGD 12  0  2  1  1
VFB 14  0  0
FFB  2  1  VFB  1
CGD 13 14  41.1P
R1  13  0  1
D1  12 13  DLIM
DDG 15 14  DCGD
R2  12 15  1
D2  15  0  DLIM
DSD  3 10  DSUB
LS  30 40  7.5N
.MODEL DMOS NMOS (LEVEL=3 THETA=80M VMAX=166K ETA=2M VTO=1.8 KP=.141)
.MODEL DCGD D (CJO=41.1P VJ=.6 M=.68)
.MODEL DSUB D (IS=1.34N N=1.5 RS=1.2 BV=80 CJO=29.8P VJ=.8 M=.42 TT=100N)
.MODEL DLIM D (IS=100U)
.ENDS
.SUBCKT BSP126   10 20 40
* 10=drain  20=gate  40=source
M1   1  2  3  3  DMOS L=1U W=1U
RD  10  1  2.85
RS  30  3  .151
RG  20  2  5
CGS  2  3  60P
EGD 12  0  2  1  1
VFB 14  0  0
FFB  2  1  VFB  1
CGD 13 14  64.2P
R1  13  0  1
D1  12 13  DLIM
DDG 15 14  DCGD
R2  12 15  1
D2  15  0  DLIM
DSD  3 10  DSUB
LS  30 40  3N
.MODEL DMOS NMOS (LEVEL=3 THETA=80M VMAX=521K ETA=2M VTO=1.4 KP=.52)
.MODEL DCGD D (CJO=64.2P VJ=.6 M=.68)
.MODEL DSUB D (IS=1.45N N=1.5 RS=1.35 BV=250 CJO=64.5P VJ=.8 M=.42 TT=102N)
.MODEL DLIM D (IS=100U)
.ENDS
.SUBCKT BSP130 1 2 3
* 1=drain  2=gate  3=source
Cgs  2 3 40.5E-12
Cgd1 2 4 135.8E-12
Cgd2 1 4 2.6E-12
M1 1 2 3 3 MOST1
M2 4 2 1 3 MOST2
D1 3 1 Dbody
.MODEL MOST1 NMOS(Level=3 Kp=20.95E-6 W=28E-3 L=2E-6 Rs=20E-3 Vto=1.5 Rd=6.276)
.MODEL MOST2 NMOS(Vto=-3.8 Kp=20.95E-6 W=28E-3 L=2E-6 Rs=20E-3)
.MODEL Dbody D(Is=7.368E-12 N=1.072 Rs=.8316 Ikf=0 Cjo=150.3E-12 M=.5682
+              Vj=.3644 Bv=300 Ibv=10E-6 Tt=432.8E-9)
.ENDS
.SUBCKT BSS123 1 2 3
* 1=drain  2=gate  3=source
Cgs  2 3 18.8E-12
Cgd1 2 4 57.7E-12
Cgd2 1 4 4E-12
M1 1 2 3 3 MOST1
M2 4 2 1 3 MOST2
D1 3 1 Dbody
.MODEL MOST1 NMOS(Level=3 Kp=20.79u W=7.9m L=2u Rs=20m Vto=1.6 Rd=1.515)
.MODEL MOST2 NMOS(VTO=-4.64 Kp=20.79u W=7.9m L=2u Rs=20m)
.MODEL Dbody D(Is=192.2f N=1.052 Rs=318.2m Cjo=72.35p M=422.8m Vj=494.8m
+            Bv=100 Ibv=10u Tt=140n)
.ENDS
.SUBCKT BSS87 1 2 3
* 1=drain  2=gate  3=source
Cgs  6 3 36.5e-12
Cgd1 6 4 123e-12
Cgd2 1 4 3.5e-12
M1 5 6 3 3 MOST1
M2 4 6 5 3 MOST2
D1 3 5 Dbody
Rd 5 1 Rtemp 4.1
Rg 2 6 10
.MODEL MOST1 NMOS(Level=3 Vto=1.8 Kp=1.63e-7 Eta=3e-6 W=0.1 L=0.1e-6
+                Rs=0 Rd=0 Ld=0 Wd=0 Uo=500 Vmax=4e7 
+                Xj=5e-7 Kappa=0.08 Nfs=3e12 Theta=5e-3 Tpg=1
+                Cgbo=0 Cgso=0 Cgdo=0 Delta=0.1 Is=0)
.MODEL MOST2 NMOS(Level=3 Vto=-3.3 Kp=1e-7 Eta=3e-6 W=5e-4 L=0.1e-6
+                Rs=0 Rd=0 Ld=0 Wd=0 Uo=500 Vmax=0 
+                Xj=0 Kappa=0.2 Nfs=0 Theta=0 Tpg=1
+                Cgbo=0 Cgso=0 Cgdo=0 Delta=0 Is=0)
.MODEL Dbody D(Is=1e-14 N=0.8 Rs=0 Ikf=1e3 Cjo=0 M=0.5 Vj=0.4
+                Bv=200 Ibv=10e-6 Tt=40e-9)
.MODEL Rtemp RES(TC1=9e-3 TC2=3.1e-5)
.ENDS
.SUBCKT BST72A   10 20 40
* 10=drain  20=gate  40=source
M1   1  2  3  3  DMOS L=1U W=1U
RD  10  1  3.32
RS  30  3  .176
RG  20  2  1
CGS  2  3  22.5P
EGD 12  0  2  1  1
VFB 14  0  0
FFB  2  1  VFB  1
CGD 13 14  38P
R1  13  0  1
D1  12 13  DLIM
DDG 15 14  DCGD
R2  12 15  1
D2  15  0  DLIM
DSD  3 10  DSUB
LS  30 40  7.5N
.MODEL DMOS NMOS (LEVEL=3 THETA=80M VMAX=166K ETA=2M VTO=2 KP=.185)
.MODEL DCGD D (CJO=38P VJ=.6 M=.68)
.MODEL DSUB D (IS=1.24N N=1.5 RS=1.3 BV=80 CJO=29.8P VJ=.8 M=.42 TT=150N)
.MODEL DLIM D (IS=100U)
.ENDS
.SUBCKT BST82   10 20 40
* 10=drain  20=gate  40=source
M1   1  2  3  3  DMOS L=1U W=1U
RD  10  1  3.32
RS  30  3  .176
RG  20  2  1
CGS  2  3  22.5P
EGD 12  0  2  1  1
VFB 14  0  0
FFB  2  1  VFB  1
CGD 13 14  38P
R1  13  0  1
D1  12 13  DLIM
DDG 15 14  DCGD
R2  12 15  1
D2  15  0  DLIM
DSD  3 10  DSUB
LS  30 40  7.5N
.MODEL DMOS NMOS (LEVEL=3 THETA=80M VMAX=166K ETA=2M VTO=2 KP=.185)
.MODEL DCGD D (CJO=38P VJ=.6 M=.68)
.MODEL DSUB D (IS=1.24N N=1.5 RS=1.3 BV=80 CJO=29.8P VJ=.8 M=.42 TT=150N)
.MODEL DLIM D (IS=100U)
.ENDS
.SUBCKT PHB11N06LT 1 2 3
* 1=drain  2=gate  3=source
L1 1 11 3.5e-9
L2 2 22 7.5e-9
L3 3 33 7.5e-9
Cgs  6 33 311E-12
Cgd1 6 4 672E-12
Cgd2 11 4 35E-12
M1 5 6 33 33 MOST1
M2 4 6 5 33 MOST2
D1 33 12 Dbody
Rdiode 12 11 Rtemp 1e-6
Rdrain 5 11 Rtemp 78e-3
Rgate 22 6 35
.MODEL MOST1 NMOS (LEVEL=3 W=0.1 L=0.3e-6 Vto=1.99 Kp=1.7e-5
+                          RS=0 RD=0 UO=650 VMAX=0 XJ=0.5E-6 KAPPA=10E-2
+                          ETA=3e-5 TPG=1 IS=0 LD=0 WD=0 CGSO=0 CGDO=0
+                          CGBO=0 NFS=1.05e12 DELTA=0.1)
.MODEL MOST2 NMOS (LEVEL=3 W=0.1 L=0.3e-6 Vto=-2.79 Kp=1.7e-5
+                          RS=500 RD=500 UO=650 VMAX=0 XJ=0.5E-6 KAPPA=10E-2
+                          ETA=3e-5 TPG=1 IS=0 LD=0 WD=0 CGSO=0 CGDO=0
+                          CGBO=0 NFS=0 DELTA=0.1)
.MODEL Dbody D(Is=1e-14 N=0.85 Rs=24e-3 Ikf=1e3 Cjo=0 M=0.5 Vj=0.4
+                         Bv=55 Ibv=250e-6 Tt=35e-9)
.MODEL Rtemp RES(TC1=4.56e-3 TC2=1.28e-5)
.ENDS
.SUBCKT PHB12NQ15T 1 2 3
* 1=drain  2=gate  3=source
L1 1 11 3.5e-9
L2 2 22 7.5e-9
L3 3 33 7.5e-9
Cgs  6 33 776E-12
Cgd1 6 4 891E-12
Cgd2 11 4 57E-12
M1 5 6 33 33 MOST1
M2 4 6 5 33 MOST2
D1 33 12 Dbody
Rdiode 12 11 Rtemp 2e-3
Rdrain 5 11 Rtemp 160e-3
Rgate 22 6 3
.MODEL MOST1 NMOS (LEVEL=3 W=0.1 L=0.3e-6 Vto=4 Kp=2.4e-5
+                          RS=0 RD=0 UO=650 VMAX=0 XJ=0.5E-6 KAPPA=10E-2
+                          ETA=1e-4 TPG=1 IS=0 LD=0 WD=0 CGSO=0 CGDO=0
+                          CGBO=0 NFS=1.6e12 DELTA=0.1)
.MODEL MOST2 NMOS (LEVEL=3 W=0.1 L=0.3e-6 Vto=-4.98 Kp=2.4e-5
+                          RS=1000 RD=1000 UO=650 VMAX=0 XJ=0.5E-6 KAPPA=10E-2
+                          ETA=1e-4 TPG=1 IS=0 LD=0 WD=0 CGSO=0 CGDO=0
+                          CGBO=0 NFS=0 DELTA=0.1)
.MODEL Dbody D(Is=1e-14 N=0.85 Rs=5.67e-3 Ikf=1e3 Cjo=0 M=0.5 Vj=0.4
+                         Bv=150 Ibv=250e-6 Tt=108e-9)
.MODEL Rtemp RES(TC1=7.58e-3 TC2=1.16e-5)
.ENDS
.SUBCKT PHB18NQ10T 1 2 3
* 1=drain  2=gate  3=source
L1 1 11 3.5e-9
L2 2 22 7.5e-9
L3 3 33 7.5e-9
Cgs  6 33 739E-12
Cgd1 6 4 1061E-12
Cgd2 11 4 61E-12
M1 5 6 33 33 MOST1
M2 4 6 5 33 MOST2
D1 33 12 Dbody
Rdiode 12 11 Rtemp 2.3e-3
Rdrain 5 11 Rtemp 55e-3
Rgate 22 6 2
.MODEL MOST1 NMOS (LEVEL=3 W=0.1 L=0.3e-6 Vto=3.85 Kp=2.01e-5 
+                          RS=0 RD=0 UO=650 VMAX=0 XJ=0.5E-6 KAPPA=10E-2
+                          ETA=1e-4 TPG=1 IS=0 LD=0 WD=0 CGSO=0 CGDO=0
+                          CGBO=0 NFS=1.5e12 DELTA=0.1)
.MODEL MOST2 NMOS (LEVEL=3 W=0.1 L=0.3e-6 Vto=-3.69 Kp=2.01e-5 
+                          RS=1000 RD=1000 UO=650 VMAX=0 XJ=0.5E-6 KAPPA=10E-2
+                          ETA=1e-4 TPG=1 IS=0 LD=0 WD=0 CGSO=0 CGDO=0
+                          CGBO=0 NFS=0 DELTA=0.1)
.MODEL Dbody D(Is=1e-14 N=0.85 Rs=5e-3 Ikf=1e3 Cjo=0 M=0.5 Vj=0.4
+                         Bv=100 Ibv=250e-6 Tt=55e-9)
.MODEL Rtemp RES(TC1=6.81e-3 TC2=2.86e-5)
.ENDS
.SUBCKT PHB20NQ20T 1 2 3
* 1=drain  2=gate  3=source
L1 1 11 3.5e-9
L2 2 22 7.5e-9
L3 3 33 7.5e-9
Cgs  6 33 2110E-12
Cgd1 6 4 2792E-12
Cgd2 11 4 90E-12
M1 5 6 33 33 MOST1
M2 4 6 5 33 MOST2
D1 33 12 Dbody
Rdiode 12 11 Rtemp 1.5e-3
Rdrain 5 11 Rtemp 111e-3
Rgate 22 6 8
.MODEL MOST1 NMOS (LEVEL=3 W=0.1 L=0.3e-6 Vto=4.01 Kp=5.25e-5
+                          RS=0 RD=0 UO=650 VMAX=0 XJ=0.5E-6 KAPPA=10E-2
+                          ETA=1e-4 TPG=1 IS=0 LD=0 WD=0 CGSO=0 CGDO=0
+                          CGBO=0 NFS=1.45e12 DELTA=0.1)
.MODEL MOST2 NMOS (LEVEL=3 W=0.1 L=0.3e-6 Vto=-3.87 Kp=5.25e-5
+                          RS=1000 RD=1000 UO=650 VMAX=0 XJ=0.5E-6 KAPPA=10E-2
+                          ETA=1e-4 TPG=1 IS=0 LD=0 WD=0 CGSO=0 CGDO=0
+                          CGBO=0 NFS=0 DELTA=0.1)
.MODEL Dbody D(Is=1e-14 N=0.85 Rs=3.9e-3 Ikf=1e3 Cjo=0 M=0.5 Vj=0.4
+                         Bv=200 Ibv=250e-6 Tt=135e-9)
.MODEL Rtemp RES(TC1=8.35e-3 TC2=1.1e-5)
.ENDS
.SUBCKT PHB23NQ10T 1 2 3
* 1=drain  2=gate  3=source
L1 1 11 3.5e-9
L2 2 22 7.5e-9
L3 3 33 7.5e-9
Cgs  6 33 718E-12
Cgd1 6 4 1203E-12
Cgd2 11 4 83E-12
M1 5 6 33 33 MOST1
M2 4 6 5 33 MOST2
D1 33 12 Dbody
Rdiode 12 11 Rtemp 1e-6
Rdrain 5 11 Rtemp 27e-3
Rgate 22 6 5
.MODEL MOST1 NMOS (LEVEL=3 W=0.1 L=0.3e-6 Vto=3.67 Kp=2.21e-5 
+                          RS=0 RD=0 UO=650 VMAX=0 XJ=0.5E-6 KAPPA=10E-2
+                          ETA=1e-4 TPG=1 IS=0 LD=0 WD=0 CGSO=0 CGDO=0
+                          CGBO=0 NFS=1.2e12 DELTA=0.1)
.MODEL MOST2 NMOS (LEVEL=3 W=0.1 L=0.3e-6 Vto=-4.64 Kp=2.21e-5 
+                          RS=1000 RD=1000 UO=650 VMAX=0 XJ=0.5E-6 KAPPA=10E-2
+                          ETA=1e-4 TPG=1 IS=0 LD=0 WD=0 CGSO=0 CGDO=0
+                          CGBO=0 NFS=0 DELTA=0.1)
.MODEL Dbody D(Is=1e-14 N=0.85 Rs=11.3e-3 Ikf=1e3 Cjo=0 M=0.5 Vj=0.4
+                         Bv=100 Ibv=250e-6 Tt=65e-9)
.MODEL Rtemp RES(TC1=6.81e-3 TC2=2.86e-5)
.ENDS
.SUBCKT PHB23NQ15T 1 2 3
* 1=drain  2=gate  3=source
L1 1 11 3.5e-9
L2 2 22 7.5e-9
L3 3 33 7.5e-9
Cgs  6 33 1382E-12
Cgd1 6 4 2289E-12
Cgd2 11 4 118E-12
M1 5 6 33 33 MOST1
M2 4 6 5 33 MOST2
D1 33 12 Dbody
Rdiode 12 11 Rtemp 1.5e-3
Rdrain 5 11 Rtemp 64e-3
Rgate 22 6 11
.MODEL MOST1 NMOS (LEVEL=3 W=0.1 L=0.3e-6 Vto=3.98 Kp=4.41e-5
+                          RS=0 RD=0 UO=650 VMAX=0 XJ=0.5E-6 KAPPA=10E-2
+                          ETA=1e-4 TPG=1 IS=0 LD=0 WD=0 CGSO=0 CGDO=0
+                          CGBO=0 NFS=1.45e12 DELTA=0.1)
.MODEL MOST2 NMOS (LEVEL=3 W=0.1 L=0.3e-6 Vto=-4.76 Kp=4.41e-5
+                          RS=1000 RD=1000 UO=650 VMAX=0 XJ=0.5E-6 KAPPA=10E-2
+                          ETA=1e-4 TPG=1 IS=0 LD=0 WD=0 CGSO=0 CGDO=0
+                          CGBO=0 NFS=0 DELTA=0.1)
.MODEL Dbody D(Is=1e-14 N=0.8 Rs=4.67e-3 Ikf=1e3 Cjo=0 M=0.5 Vj=0.4
+                         Bv=150 Ibv=250e-6 Tt=118e-9)
.MODEL Rtemp RES(TC1=7.58e-3 TC2=1.16e-5)
.ENDS
.SUBCKT PHB27NQ10T 1 2 3
* 1=drain  2=gate  3=source
L1 1 11 3.5e-9
L2 2 22 7.5e-9
L3 3 33 7.5e-9
Cgs  6 33 967E-12
Cgd1 6 4 1783E-12
Cgd2 11 4 100E-12
M1 5 6 33 33 MOST1
M2 4 6 5 33 MOST2
D1 33 12 Dbody
Rdiode 12 11 Rtemp 1e-6
Rdrain 5 11 Rtemp 28.2e-3
Rgate 22 6 2
.MODEL MOST1 NMOS (LEVEL=3 W=0.1 L=0.3e-6 Vto=3.73 Kp=4.08e-5 
+                          RS=0 RD=0 UO=650 VMAX=0 XJ=0.5E-6 KAPPA=10E-2
+                          ETA=1e-4 TPG=1 IS=0 LD=0 WD=0 CGSO=0 CGDO=0
+                          CGBO=0 NFS=1.1e12 DELTA=0.1)
.MODEL MOST2 NMOS (LEVEL=3 W=0.1 L=0.3e-6 Vto=-2.7 Kp=4.08e-5 
+                          RS=1000 RD=1000 UO=650 VMAX=0 XJ=0.5E-6 KAPPA=10E-2
+                          ETA=1e-4 TPG=1 IS=0 LD=0 WD=0 CGSO=0 CGDO=0
+                          CGBO=0 NFS=0 DELTA=0.1)
.MODEL Dbody D(Is=1e-14 N=0.85 Rs=8.3e-3 Ikf=1e3 Cjo=0 M=0.5 Vj=0.4
+                         Bv=100 Ibv=250e-6 Tt=60e-9)
.MODEL Rtemp RES(TC1=6.81e-3 TC2=2.86e-5)
.ENDS
.SUBCKT PHB45NQ10T 1 2 3
* 1=drain  2=gate  3=source
L1 1 11 3.5e-9
L2 2 22 7.5e-9
L3 3 33 7.5e-9
Cgs  6 33 2138E-12
Cgd1 6 4 2955E-12
Cgd2 11 4 195E-12
M1 5 6 33 33 MOST1
M2 4 6 5 33 MOST2
D1 33 12 Dbody
Rdiode 12 11 Rtemp 0.95e-3
Rdrain 5 11 Rtemp 16e-3
Rgate 22 6 13
.MODEL MOST1 NMOS (LEVEL=3 W=0.1 L=0.3e-6 Vto=3.81 Kp=8.01e-5
+                          RS=0 RD=0 UO=650 VMAX=0 XJ=0.5E-6 KAPPA=10E-2
+                          ETA=1e-4 TPG=1 IS=0 LD=0 WD=0 CGSO=0 CGDO=0
+                          CGBO=0 NFS=1.1e12 DELTA=0.1)
.MODEL MOST2 NMOS (LEVEL=3 W=0.1 L=0.3e-6 Vto=-4.72 Kp=8.01e-5
+                          RS=1000 RD=1000 UO=650 VMAX=0 XJ=0.5E-6 KAPPA=10E-2
+                          ETA=1e-4 TPG=1 IS=0 LD=0 WD=0 CGSO=0 CGDO=0
+                          CGBO=0 NFS=0 DELTA=0.1)
.MODEL Dbody D(Is=1e-14 N=0.8 Rs=3.2e-3 Ikf=1e3 Cjo=0 M=0.5 Vj=0.4
+                         Bv=100 Ibv=250e-6 Tt=82e-9)
.MODEL Rtemp RES(TC1=6.81e-3 TC2=2.86e-5)
.ENDS
.SUBCKT PHB9NQ20T 1 2 3
* 1=drain  2=gate  3=source
L1 1 11 3.5e-9
L2 2 22 7.5e-9
L3 3 33 7.5e-9
Cgs  6 33 613E-12
Cgd1 6 4 1254E-12
Cgd2 11 4 54E-12
M1 5 6 33 33 MOST1
M2 4 6 5 33 MOST2
D1 33 12 Dbody
Rdiode 12 11 Rtemp 1.5e-3
Rdrain 5 11 Rtemp 276e-3
Rgate 22 6 8
.MODEL MOST1 NMOS (LEVEL=3 W=0.1 L=0.3e-6 Vto=4.01 Kp=2.04e-5
+                          RS=0 RD=0 UO=650 VMAX=0 XJ=0.5E-6 KAPPA=10E-2
+                          ETA=1e-4 TPG=1 IS=0 LD=0 WD=0 CGSO=0 CGDO=0
+                          CGBO=0 NFS=1.7e12 DELTA=0.1)
.MODEL MOST2 NMOS (LEVEL=3 W=0.1 L=0.3e-6 Vto=-5.56 Kp=2.04e-5
+                          RS=1000 RD=1000 UO=650 VMAX=0 XJ=0.5E-6 KAPPA=10E-2
+                          ETA=1e-4 TPG=1 IS=0 LD=0 WD=0 CGSO=0 CGDO=0
+                          CGBO=0 NFS=0 DELTA=0.1)
.MODEL Dbody D(Is=1e-14 N=0.85 Rs=9.5e-3 Ikf=1e3 Cjo=0 M=0.5 Vj=0.4
+                         Bv=200 Ibv=250e-6 Tt=105e-9)
.MODEL Rtemp RES(TC1=8.35e-3 TC2=1.1e-5)
.ENDS
.SUBCKT PHC21025N 1 2 3
* 1=drain  2=gate  3=source
Cgs  6 3 190E-12
Cgd1 6 4 409E-12
Cgd2 1 4 50E-12
M1 5 6 3 3 MOST1
M2 4 6 5 3 MOST2
D1 3 5 Dbody
Rd 5 1 Rtemp 11e-3
Rg 2 6 22
.MODEL MOST1 NMOS(Level=3 Vto=1.6 Kp=1.8e-7 Eta=3e-6 W=1 L=0.1e-6
+                Rs=0 Rd=0 Ld=0 Wd=0 Uo=500 Vmax=4e7 
+                Xj=5e-7 Kappa=0.08 Nfs=3e12 Theta=5e-3 Tpg=1
+                Cgbo=0 Cgso=0 Cgdo=0 Delta=0.1 Is=0)
.MODEL MOST2 NMOS(Level=3 Vto=-3.9 Kp=1.8e-7 Eta=3e-6 W=7e-5 L=0.1e-6
+                Rs=0 Rd=0 Ld=0 Wd=0 Uo=500 Vmax=0 
+                Xj=0 Kappa=0.2 Nfs=0 Theta=0 Tpg=1
+                Cgbo=0 Cgso=0 Cgdo=0 Delta=0 Is=0)
.MODEL Dbody D(Is=1e-14 N=0.9 Rs=35e-3 Ikf=1e3 Cjo=0 M=0.5 Vj=0.4 
+                Bv=30 Ibv=10e-6 Tt=40e-9)
.MODEL Rtemp RES(TC1=4.3e-3 TC2=4e-6)
.ENDS
.SUBCKT PHC2300N 1 2 3
* 1=drain  2=gate  3=source
Cgs  2 3 40.5E-12
Cgd1 2 4 135.8E-12
Cgd2 1 4 2.6E-12
M1 1 2 3 3 MOST1
M2 4 2 1 3 MOST2
D1 3 1 Dbody
.MODEL MOST1 NMOS(Level=3 Kp=20.95E-6 W=28E-3 L=2E-6 Rs=20E-3 Vto=1.5 Rd=6.276)
.MODEL MOST2 NMOS(Vto=-3.8 Kp=20.95E-6 W=28E-3 L=2E-6 Rs=20E-3)
.MODEL Dbody D(Is=7.368E-12 N=1.072 Rs=.8316 Ikf=0 Cjo=150.3E-12 M=.5682
+              Vj=.3644 Bv=300 Ibv=10E-6 Tt=432.8E-9)
.ENDS
.SUBCKT PHD18NQ10T 1 2 3
* 1=drain  2=gate  3=source
L1 1 11 3.5e-9
L2 2 22 7.5e-9
L3 3 33 7.5e-9
Cgs  6 33 739E-12
Cgd1 6 4 1061E-12
Cgd2 11 4 61E-12
M1 5 6 33 33 MOST1
M2 4 6 5 33 MOST2
D1 33 12 Dbody
Rdiode 12 11 Rtemp 2.3e-3
Rdrain 5 11 Rtemp 55e-3
Rgate 22 6 2
.MODEL MOST1 NMOS (LEVEL=3 W=0.1 L=0.3e-6 Vto=3.85 Kp=2.01e-5 
+                          RS=0 RD=0 UO=650 VMAX=0 XJ=0.5E-6 KAPPA=10E-2
+                          ETA=1e-4 TPG=1 IS=0 LD=0 WD=0 CGSO=0 CGDO=0
+                          CGBO=0 NFS=1.5e12 DELTA=0.1)
.MODEL MOST2 NMOS (LEVEL=3 W=0.1 L=0.3e-6 Vto=-3.69 Kp=2.01e-5 
+                          RS=1000 RD=1000 UO=650 VMAX=0 XJ=0.5E-6 KAPPA=10E-2
+                          ETA=1e-4 TPG=1 IS=0 LD=0 WD=0 CGSO=0 CGDO=0
+                          CGBO=0 NFS=0 DELTA=0.1)
.MODEL Dbody D(Is=1e-14 N=0.85 Rs=5e-3 Ikf=1e3 Cjo=0 M=0.5 Vj=0.4
+                         Bv=100 Ibv=250e-6 Tt=55e-9)
.MODEL Rtemp RES(TC1=6.81e-3 TC2=2.86e-5)
.ENDS
.SUBCKT PHD23NQ10T 1 2 3
* 1=drain  2=gate  3=source
L1 1 11 3.5e-9
L2 2 22 7.5e-9
L3 3 33 7.5e-9
Cgs  6 33 718E-12
Cgd1 6 4 1203E-12
Cgd2 11 4 83E-12
M1 5 6 33 33 MOST1
M2 4 6 5 33 MOST2
D1 33 12 Dbody
Rdiode 12 11 Rtemp 1e-6
Rdrain 5 11 Rtemp 27e-3
Rgate 22 6 5
.MODEL MOST1 NMOS (LEVEL=3 W=0.1 L=0.3e-6 Vto=3.67 Kp=2.21e-5 
+                          RS=0 RD=0 UO=650 VMAX=0 XJ=0.5E-6 KAPPA=10E-2
+                          ETA=1e-4 TPG=1 IS=0 LD=0 WD=0 CGSO=0 CGDO=0
+                          CGBO=0 NFS=1.2e12 DELTA=0.1)
.MODEL MOST2 NMOS (LEVEL=3 W=0.1 L=0.3e-6 Vto=-4.64 Kp=2.21e-5 
+                          RS=1000 RD=1000 UO=650 VMAX=0 XJ=0.5E-6 KAPPA=10E-2
+                          ETA=1e-4 TPG=1 IS=0 LD=0 WD=0 CGSO=0 CGDO=0
+                          CGBO=0 NFS=0 DELTA=0.1)
.MODEL Dbody D(Is=1e-14 N=0.85 Rs=11.3e-3 Ikf=1e3 Cjo=0 M=0.5 Vj=0.4
+                         Bv=100 Ibv=250e-6 Tt=65e-9)
.MODEL Rtemp RES(TC1=6.81e-3 TC2=2.86e-5)
.ENDS
.SUBCKT PHD34NQ10T 1 2 3
* 1=drain  2=gate  3=source
L1 1 11 3.5e-9
L2 2 22 7.5e-9
L3 3 33 7.5e-9
Cgs  6 33 1193E-12
Cgd1 6 4 2240E-12
Cgd2 11 4 140E-12
M1 5 6 33 33 MOST1
M2 4 6 5 33 MOST2
D1 33 12 Dbody
Rdiode 12 11 Rtemp 0.7e-3
Rdrain 5 11 Rtemp 23e-3
Rgate 22 6 9
.MODEL MOST1 NMOS (LEVEL=3 W=0.1 L=0.3e-6 Vto=3.57 Kp=3.96e-5 
+                          RS=0 RD=0 UO=650 VMAX=0 XJ=0.5E-6 KAPPA=10E-2
+                          ETA=1e-4 TPG=1 IS=0 LD=0 WD=0 CGSO=0 CGDO=0
+                          CGBO=0 NFS=0.95e12 DELTA=0.1)
.MODEL MOST2 NMOS (LEVEL=3 W=0.1 L=0.3e-6 Vto=-4.24 Kp=3.96e-5 
+                          RS=1000 RD=1000 UO=650 VMAX=0 XJ=0.5E-6 KAPPA=10E-2
+                          ETA=1e-4 TPG=1 IS=0 LD=0 WD=0 CGSO=0 CGDO=0
+                          CGBO=0 NFS=0 DELTA=0.1)
.MODEL Dbody D(Is=1e-14 N=0.8 Rs=4.9e-3 Ikf=1e3 Cjo=0 M=0.5 Vj=0.4
+                         Bv=100 Ibv=250e-6 Tt=76e-9)
.MODEL Rtemp RES(TC1=6.81e-3 TC2=2.86e-5)
.ENDS
.SUBCKT PHK4NQ10T 1 2 3
* 1=drain  2=gate  3=source
L1 1 11 1e-9
L2 2 22 3e-9
L3 3 33 3e-9
Cgs  6 33 718E-12
Cgd1 6 4 1203E-12
Cgd2 11 4 83E-12
M1 5 6 33 33 MOST1
M2 4 6 5 33 MOST2
D1 33 12 Dbody
Rdiode 12 11 Rtemp 1e-6
Rdrain 5 11 Rtemp 44e-3
Rgate 22 6 13
.MODEL MOST1 NMOS (LEVEL=3 W=0.1 L=0.3e-6 Vto=3.67 Kp=2.21e-5 
+                          RS=0 RD=0 UO=650 VMAX=0 XJ=0.5E-6 KAPPA=10E-2
+                          ETA=1e-4 TPG=1 IS=0 LD=0 WD=0 CGSO=0 CGDO=0
+                          CGBO=0 NFS=1.2e12 DELTA=0.1)
.MODEL MOST2 NMOS (LEVEL=3 W=0.1 L=0.3e-6 Vto=-4.64 Kp=2.21e-5 
+                          RS=1000 RD=1000 UO=650 VMAX=0 XJ=0.5E-6 KAPPA=10E-2
+                          ETA=1e-4 TPG=1 IS=0 LD=0 WD=0 CGSO=0 CGDO=0
+                          CGBO=0 NFS=0 DELTA=0.1)
.MODEL Dbody D(Is=1e-14 N=0.85 Rs=11.3e-3 Ikf=1e3 Cjo=0 M=0.5 Vj=0.4
+                         Bv=100 Ibv=250e-6 Tt=65e-9)
.MODEL Rtemp RES(TC1=6.81e-3 TC2=2.86e-5)
.ENDS
.SUBCKT PHK5NQ10T 1 2 3
* 1=drain  2=gate  3=source
L1 1 11 1e-9
L2 2 22 3e-9
L3 3 33 3e-9
Cgs  6 33 967E-12
Cgd1 6 4 1783E-12
Cgd2 11 4 100E-12
M1 5 6 33 33 MOST1
M2 4 6 5 33 MOST2
D1 33 12 Dbody
Rdiode 12 11 Rtemp 1e-6
Rdrain 5 11 Rtemp 28.2e-3
Rgate 22 6 2
.MODEL MOST1 NMOS (LEVEL=3 W=0.1 L=0.3e-6 Vto=3.73 Kp=4.08e-5 
+                          RS=0 RD=0 UO=650 VMAX=0 XJ=0.5E-6 KAPPA=10E-2
+                          ETA=1e-4 TPG=1 IS=0 LD=0 WD=0 CGSO=0 CGDO=0
+                          CGBO=0 NFS=1.1e12 DELTA=0.1)
.MODEL MOST2 NMOS (LEVEL=3 W=0.1 L=0.3e-6 Vto=-2.7 Kp=4.08e-5 
+                          RS=1000 RD=1000 UO=650 VMAX=0 XJ=0.5E-6 KAPPA=10E-2
+                          ETA=1e-4 TPG=1 IS=0 LD=0 WD=0 CGSO=0 CGDO=0
+                          CGBO=0 NFS=0 DELTA=0.1)
.MODEL Dbody D(Is=1e-14 N=0.85 Rs=8.3e-3 Ikf=1e3 Cjo=0 M=0.5 Vj=0.4
+                         Bv=100 Ibv=250e-6 Tt=60e-9)
.MODEL Rtemp RES(TC1=6.81e-3 TC2=2.86e-5)
.ENDS
.SUBCKT PHKD3NQ10T 1 2 3
* 1=drain  2=gate  3=source
L1 1 11 2.5e-9
L2 2 22 5e-9
L3 3 33 5e-9
Cgs  6 33 739E-12
Cgd1 6 4 1061E-12
Cgd2 11 4 61E-12
M1 5 6 33 33 MOST1
M2 4 6 5 33 MOST2
D1 33 12 Dbody
Rdiode 12 11 Rtemp 2.3e-3
Rdrain 5 11 Rtemp 46e-3
Rgate 22 6 10
.MODEL MOST1 NMOS (LEVEL=3 W=0.1 L=0.3e-6 Vto=3.85 Kp=2.01e-5 
+                          RS=0 RD=0 UO=650 VMAX=0 XJ=0.5E-6 KAPPA=10E-2
+                          ETA=1e-4 TPG=1 IS=0 LD=0 WD=0 CGSO=0 CGDO=0
+                          CGBO=0 NFS=1.5e12 DELTA=0.1)
.MODEL MOST2 NMOS (LEVEL=3 W=0.1 L=0.3e-6 Vto=-3.69 Kp=2.01e-5 
+                          RS=1000 RD=1000 UO=650 VMAX=0 XJ=0.5E-6 KAPPA=10E-2
+                          ETA=1e-4 TPG=1 IS=0 LD=0 WD=0 CGSO=0 CGDO=0
+                          CGBO=0 NFS=0 DELTA=0.1)
.MODEL Dbody D(Is=1e-14 N=0.85 Rs=5e-3 Ikf=1e3 Cjo=0 M=0.5 Vj=0.4
+                         Bv=100 Ibv=250e-6 Tt=55e-9)
.MODEL Rtemp RES(TC1=6.81e-3 TC2=2.86e-5)
.ENDS
.SUBCKT PHN203 1 2 3
* 1=drain  2=gate  3=source
Cgs  6 3 392E-12
Cgd1 6 4 1032E-12
Cgd2 1 4 133E-12
M1 5 6 3 3 MOST1
M2 4 6 5 3 MOST2
D1 3 1 Dbody
Rd 5 1 Rtemp 10e-3
Rg 2 6 25
.MODEL MOST1 NMOS (LEVEL=3 W=0.1 L=0.3e-6 Vto=2.19 Kp=2.58e-5 
+                          RS=0 RD=0 UO=650 VMAX=0 XJ=0.5E-6 KAPPA=10E-2
+                          ETA=5e-5 TPG=1 IS=0 LD=0 WD=0 CGSO=0 CGDO=0
+                          CGBO=0 NFS=1.85e12 DELTA=0.1)
.MODEL MOST2 NMOS (LEVEL=3 W=0.1 L=0.3e-6 Vto=-4.79 Kp=2.58e-5
+                          RS=1000 RD=1000 UO=650 VMAX=0 XJ=0.5E-6 KAPPA=10E-2
+                          ETA=5e-5 TPG=1 IS=0 LD=0 WD=0 CGSO=0 CGDO=0
+                          CGBO=0 NFS=0 DELTA=0.1)
.MODEL Dbody D(Is=1e-14 N=0.8 Rs=18e-3 Ikf=1e3 Cjo=0 M=0.5 Vj=0.4
+                         Bv=25 Ibv=10e-6 Tt=40e-9)
.MODEL Rtemp RES(TC1=4.6e-3 TC2=8e-6)
.ENDS
.SUBCKT PHN210 1 2 3
* 1=drain  2=gate  3=source
Cgs  6 3 190E-12
Cgd1 6 4 409E-12
Cgd2 1 4 50E-12
M1 5 6 3 3 MOST1
M2 4 6 5 3 MOST2
D1 3 5 Dbody
Rd 5 1 Rtemp 11e-3
Rg 2 6 22
.MODEL MOST1 NMOS(Level=3 Vto=1.6 Kp=1.8e-7 Eta=3e-6 W=1 L=0.1e-6
+                Rs=0 Rd=0 Ld=0 Wd=0 Uo=500 Vmax=4e7 
+                Xj=5e-7 Kappa=0.08 Nfs=3e12 Theta=5e-3 Tpg=1
+                Cgbo=0 Cgso=0 Cgdo=0 Delta=0.1 Is=0)
.MODEL MOST2 NMOS(Level=3 Vto=-3.9 Kp=1.8e-7 Eta=3e-6 W=7e-5 L=0.1e-6
+                Rs=0 Rd=0 Ld=0 Wd=0 Uo=500 Vmax=0 
+                Xj=0 Kappa=0.2 Nfs=0 Theta=0 Tpg=1
+                Cgbo=0 Cgso=0 Cgdo=0 Delta=0 Is=0)
.MODEL Dbody D(Is=1e-14 N=0.9 Rs=35e-3 Ikf=1e3 Cjo=0 M=0.5 Vj=0.4 
+                Bv=30 Ibv=10e-6 Tt=40e-9)
.MODEL Rtemp RES(TC1=4.3e-3 TC2=4e-6)
.ENDS
.SUBCKT PHP12NQ15T 1 2 3
* 1=drain  2=gate  3=source
L1 1 11 4.5e-9
L2 2 22 7.5e-9
L3 3 33 7.5e-9
Cgs  6 33 776E-12
Cgd1 6 4 891E-12
Cgd2 11 4 57E-12
M1 5 6 33 33 MOST1
M2 4 6 5 33 MOST2
D1 33 12 Dbody
Rdiode 12 11 Rtemp 2e-3
Rdrain 5 11 Rtemp 160e-3
Rgate 22 6 3
.MODEL MOST1 NMOS (LEVEL=3 W=0.1 L=0.3e-6 Vto=4 Kp=2.4e-5
+                          RS=0 RD=0 UO=650 VMAX=0 XJ=0.5E-6 KAPPA=10E-2
+                          ETA=1e-4 TPG=1 IS=0 LD=0 WD=0 CGSO=0 CGDO=0
+                          CGBO=0 NFS=1.6e12 DELTA=0.1)
.MODEL MOST2 NMOS (LEVEL=3 W=0.1 L=0.3e-6 Vto=-4.98 Kp=2.4e-5
+                          RS=1000 RD=1000 UO=650 VMAX=0 XJ=0.5E-6 KAPPA=10E-2
+                          ETA=1e-4 TPG=1 IS=0 LD=0 WD=0 CGSO=0 CGDO=0
+                          CGBO=0 NFS=0 DELTA=0.1)
.MODEL Dbody D(Is=1e-14 N=0.85 Rs=5.67e-3 Ikf=1e3 Cjo=0 M=0.5 Vj=0.4
+                         Bv=150 Ibv=250e-6 Tt=108e-9)
.MODEL Rtemp RES(TC1=7.58e-3 TC2=1.16e-5)
.ENDS
.SUBCKT PHP18NQ10T 1 2 3
* 1=drain  2=gate  3=source
L1 1 11 4.5e-9
L2 2 22 7.5e-9
L3 3 33 7.5e-9
Cgs  6 33 739E-12
Cgd1 6 4 1061E-12
Cgd2 11 4 61E-12
M1 5 6 33 33 MOST1