.SUBCKT NLIND1 1 2
G2 1 2 6 0 1
G1 0 6 5 0 1
C1 6 7 0.8
R1 7 0 0.00001
R2 6 0 100MEG
B2 5 0 V=V(1, 2)/table( ABS( I(G2)) , (0, 1.0 ), (1, 0.874 ), (2, 0.678), (3, 0.278) ,(4, 0.126), (10,0.05), (100, 0.004))
.ends

