

*TIP100
**************************************
* Model Generated by MODPEX *
*Copyright(c) Symmetry Design Systems*
* All Rights Reserved *
* UNPUBLISHED LICENSED SOFTWARE *
* Contains Proprietary Information *
* Which is The Property of *
* SYMMETRY OR ITS LICENSORS *
* Modeling services provided by *
* Interface Technologies www.i-t.com *
**************************************
.SUBCKT TIP100 1 2 3
* Model generated on Mar 7, 2004
* Model format: PSpice
* Darlington macro model
* External node designations
* Node 1 -> Collect
* Node 2 -> Base
* Node 3 -> Emitter
Q1 1 2 4 qmodel
Q2 1 4 3 q1model 9.99999
D1 3 1 dmodel
R1 2 4 8000
R2 4 3 120
.MODEL dmodel d
+IS=1e-12 RS=9.99999 N=1 XTI=3
+CJO=0 VJ=0.75 M=0.33 FC=0.5
.MODEL qmodel npn
+IS=1e-12 BF=99.9989 NF=1 VAF=99.9989
+IKF=0.1 ISE=2e-12 NE=1.5 BR=1
+NR=1 VAR=99.9989 IKR=0.1 ISC=1e-13
+NC=2 RB=9.99999 IRB=0.2 RBM=9.99999
+RE=0.1 RC=1 XTB=0.5 XTI=3 EG=1.11
+CJE=2.60787e-10 VJE=0.95 MJE=0.23 TF=1e-09
+XTF=1 VTF=10 ITF=0.01 CJC=2.47942e-10
+VJC=0.95 MJC=0.23 XCJC=0.9 FC=0.5
+TR=1e-07 PTF=0 KF=0 AF=1
.MODEL q1model npn
+IS=1e-12 BF=99.9989 NF=1 VAF=99.9989
+IKF=0.1 ISE=2e-12 NE=1.5 BR=1
+NR=1 VAR=99.9989 IKR=0.1 ISC=1e-13
+NC=2 RB=9.99999 IRB=0.2 RBM=9.99999
+RE=0.1 RC=1 XTB=0.5 XTI=3 EG=1.11
+CJE=2.60787e-10 VJE=0.95 MJE=0.23 TF=1e-09
+XTF=1 VTF=10 ITF=0.01 CJC=0
+VJC=0.95 MJC=0.23 XCJC=0.9 FC=0.5
+TR=1e-07 PTF=0 KF=0 AF=1
.ENDS



*TIP101
**************************************
* Model Generated by MODPEX *
*Copyright(c) Symmetry Design Systems*
* All Rights Reserved *
* UNPUBLISHED LICENSED SOFTWARE *
* Contains Proprietary Information *
* Which is The Property of *
* SYMMETRY OR ITS LICENSORS *
* Modeling services provided by *
* Interface Technologies www.i-t.com *
**************************************
.SUBCKT TIP101 1 2 3
* Model generated on Mar 7, 2004
* Model format: PSpice
* Darlington macro model
* External node designations
* Node 1 -> Collect
* Node 2 -> Base
* Node 3 -> Emitter
Q1 1 2 4 qmodel
Q2 1 4 3 q1model 9.99999
D1 3 1 dmodel
R1 2 4 8000
R2 4 3 120
.MODEL dmodel d
+IS=1e-12 RS=9.99999 N=1 XTI=3
+CJO=0 VJ=0.75 M=0.33 FC=0.5
.MODEL qmodel npn
+IS=1e-12 BF=99.9989 NF=1 VAF=99.9989
+IKF=0.1 ISE=2e-12 NE=1.5 BR=1
+NR=1 VAR=99.9989 IKR=0.1 ISC=1e-13
+NC=2 RB=9.99999 IRB=0.2 RBM=9.99999
+RE=0.1 RC=1 XTB=0.5 XTI=3 EG=1.11
+CJE=2.60787e-10 VJE=0.95 MJE=0.23 TF=1e-09
+XTF=1 VTF=10 ITF=0.01 CJC=2.47942e-10
+VJC=0.95 MJC=0.23 XCJC=0.9 FC=0.5
+TR=1e-07 PTF=0 KF=0 AF=1
.MODEL q1model npn
+IS=1e-12 BF=99.9989 NF=1 VAF=99.9989
+IKF=0.1 ISE=2e-12 NE=1.5 BR=1
+NR=1 VAR=99.9989 IKR=0.1 ISC=1e-13
+NC=2 RB=9.99999 IRB=0.2 RBM=9.99999
+RE=0.1 RC=1 XTB=0.5 XTI=3 EG=1.11
+CJE=2.60787e-10 VJE=0.95 MJE=0.23 TF=1e-09
+XTF=1 VTF=10 ITF=0.01 CJC=0
+VJC=0.95 MJC=0.23 XCJC=0.9 FC=0.5
+TR=1e-07 PTF=0 KF=0 AF=1
.ENDS



*TIP102
.SUBCKT TIP102 1 2 3
**************************************
* Model Generated by MODPEX *
*Copyright(c) Symmetry Design Systems*
* All Rights Reserved *
* UNPUBLISHED LICENSED SOFTWARE *
* Contains Proprietary Information *
* Which is The Property of *
* SYMMETRY OR ITS LICENSORS *
*Commercial Use or Resale Restricted *
* by Symmetry License Agreement *
**************************************
* Model generated on Jan 20, 03
* MODEL FORMAT: PSpice
* Darlington macro model
* External node designations
* Node 1 -> Collect
* Node 2 -> Base
* Node 3 -> Emitter
Q1 1 2 4 qmodel
Q2 1 4 3 q1model 11.2198
D1 3 1 dmodel
R1 2 4 8000
R2 4 3 120
.MODEL dmodel d
+IS=1e-12 RS=10 N=1 XTI=3
+CJO=0 VJ=0.75 M=0.33 FC=0.5
.MODEL qmodel npn
+IS=2.88485e-13 BF=126.335 NF=1.2 VAF=30
+IKF=0.132527 ISE=6.51929e-12 NE=1.9601 BR=0.100001
+NR=1.5 VAR=300 IKR=0.0843484 ISC=1.01027e-13
+NC=1.92564 RB=2.61873 IRB=0.2 RBM=2.61873
+RE=0.0001 RC=2.60372 XTB=0 XTI=4 EG=1.206
+CJE=1.13087e-10 VJE=0.95 MJE=0.692676 TF=1e-09
+XTF=1 VTF=10 ITF=0.01 CJC=1.56651e-10
+VJC=0.908287 MJC=0.23 XCJC=0.897966 FC=0.5
+TR=1e-07 PTF=0 KF=0 AF=1
.MODEL q1model npn
+IS=2.88485e-13 BF=126.335 NF=1.2 VAF=30
+IKF=0.132527 ISE=6.51929e-12 NE=1.9601 BR=0.100001
+NR=1.5 VAR=300 IKR=0.0843484 ISC=1.01027e-13
+NC=1.92564 RB=2.61873 IRB=0.2 RBM=2.61873
+RE=0.0001 RC=2.60372 XTB=0 XTI=4 EG=1.206
+CJE=1.13087e-10 VJE=0.95 MJE=0.692676 TF=1e-09
+XTF=1 VTF=10 ITF=0.01 CJC=0
+VJC=0.908287 MJC=0.23 XCJC=0.897966 FC=0.5
+TR=1e-07 PTF=0 KF=0 AF=1
.ENDS TIP102



*TIP110
**************************************
* Model Generated by MODPEX *
*Copyright(c) Symmetry Design Systems*
* All Rights Reserved *
* UNPUBLISHED LICENSED SOFTWARE *
* Contains Proprietary Information *
* Which is The Property of *
* SYMMETRY OR ITS LICENSORS *
* Modeling services provided by *
* Interface Technologies www.i-t.com *
**************************************
.SUBCKT TIP110 1 2 3
* Model generated on Feb 7, 2004
* Model format: PSpice
* Darlington macro model
* External node designations
* Node 1 -> Collect
* Node 2 -> Base
* Node 3 -> Emitter
Q1 1 2 4 qmodel
Q2 1 4 3 q1model 1.34411
D1 3 1 dmodel
R1 2 4 10000
R2 4 3 1000
.MODEL dmodel d
+IS=1e-12 RS=10 N=1 XTI=3
+CJO=0 VJ=0.75 M=0.33 FC=0.5
.MODEL qmodel npn
+IS=3.38355e-12 BF=420.091 NF=0.999876 VAF=30
+IKF=0.0735469 ISE=9.55367e-11 NE=1.59376 BR=4.3812
+NR=0.75 VAR=92.4208 IKR=0.101198 ISC=1.00081e-13
+NC=2.00034 RB=4.89613 IRB=0.1 RBM=0.1
+RE=0.0002 RC=0.001 XTB=0.453845 XTI=2.88665 EG=1.05
+CJE=1.98486e-10 VJE=0.95 MJE=0.23 TF=1e-09
+XTF=1 VTF=10 ITF=0.01 CJC=4.38526e-11
+VJC=0.95 MJC=0.23 XCJC=0.9 FC=0.5
+TR=1e-07 PTF=0 KF=0 AF=1
.MODEL q1model npn
+IS=3.38355e-12 BF=420.091 NF=0.999876 VAF=30
+IKF=0.0735469 ISE=9.55367e-11 NE=1.59376 BR=4.3812
+NR=0.75 VAR=92.4208 IKR=0.101198 ISC=1.00081e-13
+NC=2.00034 RB=4.89613 IRB=0.1 RBM=0.1
+RE=0.0002 RC=0.001 XTB=0.453845 XTI=2.88665 EG=1.05
+CJE=1.98486e-10 VJE=0.95 MJE=0.23 TF=1e-09
+XTF=1 VTF=10 ITF=0.01 CJC=0
+VJC=0.95 MJC=0.23 XCJC=0.9 FC=0.5
+TR=1e-07 PTF=0 KF=0 AF=1
.ENDS



*TIP111
**************************************
* Model Generated by MODPEX *
*Copyright(c) Symmetry Design Systems*
* All Rights Reserved *
* UNPUBLISHED LICENSED SOFTWARE *
* Contains Proprietary Information *
* Which is The Property of *
* SYMMETRY OR ITS LICENSORS *
* Modeling services provided by *
* Interface Technologies www.i-t.com *
**************************************
.SUBCKT TIP111 1 2 3
* Model generated on Feb 7, 2004
* Model format: PSpice
* Darlington macro model
* External node designations
* Node 1 -> Collect
* Node 2 -> Base
* Node 3 -> Emitter
Q1 1 2 4 qmodel
Q2 1 4 3 q1model 1.34411
D1 3 1 dmodel
R1 2 4 10000
R2 4 3 1000
.MODEL dmodel d
+IS=1e-12 RS=10 N=1 XTI=3
+CJO=0 VJ=0.75 M=0.33 FC=0.5
.MODEL qmodel npn
+IS=3.38355e-12 BF=420.091 NF=0.999876 VAF=30
+IKF=0.0735469 ISE=9.55367e-11 NE=1.59376 BR=4.3812
+NR=0.75 VAR=92.4208 IKR=0.101198 ISC=1.00081e-13
+NC=2.00034 RB=4.89613 IRB=0.1 RBM=0.1
+RE=0.0002 RC=0.001 XTB=0.453845 XTI=2.88665 EG=1.05
+CJE=1.98486e-10 VJE=0.95 MJE=0.23 TF=1e-09
+XTF=1 VTF=10 ITF=0.01 CJC=4.38526e-11
+VJC=0.95 MJC=0.23 XCJC=0.9 FC=0.5
+TR=1e-07 PTF=0 KF=0 AF=1
.MODEL q1model npn
+IS=3.38355e-12 BF=420.091 NF=0.999876 VAF=30
+IKF=0.0735469 ISE=9.55367e-11 NE=1.59376 BR=4.3812
+NR=0.75 VAR=92.4208 IKR=0.101198 ISC=1.00081e-13
+NC=2.00034 RB=4.89613 IRB=0.1 RBM=0.1
+RE=0.0002 RC=0.001 XTB=0.453845 XTI=2.88665 EG=1.05
+CJE=1.98486e-10 VJE=0.95 MJE=0.23 TF=1e-09
+XTF=1 VTF=10 ITF=0.01 CJC=0
+VJC=0.95 MJC=0.23 XCJC=0.9 FC=0.5
+TR=1e-07 PTF=0 KF=0 AF=1
.ENDS



*TIP112
**************************************
* Model Generated by MODPEX *
*Copyright(c) Symmetry Design Systems*
* All Rights Reserved *
* UNPUBLISHED LICENSED SOFTWARE *
* Contains Proprietary Information *
* Which is The Property of *
* SYMMETRY OR ITS LICENSORS *
* Modeling services provided by *
* Interface Technologies www.i-t.com *
**************************************
.SUBCKT TIP112 1 2 3
* Model generated on Dec 26, 2003
* Model format: PSpice
* Darlington macro model
* External node designations
* Node 1 -> Collect
* Node 2 -> Base
* Node 3 -> Emitter
Q1 1 2 4 qmodel
Q2 1 4 3 q1model 1.34411
D1 3 1 dmodel
R1 2 4 10000
R2 4 3 1000
.MODEL dmodel d
+IS=1e-12 RS=10 N=1 XTI=3
+CJO=0 VJ=0.75 M=0.33 FC=0.5
.MODEL qmodel npn
+IS=3.38355e-12 BF=420.091 NF=0.999876 VAF=30
+IKF=0.0735469 ISE=9.55367e-11 NE=1.59376 BR=4.3812
+NR=0.75 VAR=92.4208 IKR=0.101198 ISC=1.00081e-13
+NC=2.00034 RB=4.89613 IRB=0.1 RBM=0.1
+RE=0.0002 RC=0.001 XTB=0.453845 XTI=2.88665 EG=1.05
+CJE=1.98486e-10 VJE=0.95 MJE=0.23 TF=1e-09
+XTF=1 VTF=10 ITF=0.01 CJC=4.38526e-11
+VJC=0.95 MJC=0.23 XCJC=0.9 FC=0.5
+TR=1e-07 PTF=0 KF=0 AF=1
.MODEL q1model npn
+IS=3.38355e-12 BF=420.091 NF=0.999876 VAF=30
+IKF=0.0735469 ISE=9.55367e-11 NE=1.59376 BR=4.3812
+NR=0.75 VAR=92.4208 IKR=0.101198 ISC=1.00081e-13
+NC=2.00034 RB=4.89613 IRB=0.1 RBM=0.1
+RE=0.0002 RC=0.001 XTB=0.453845 XTI=2.88665 EG=1.05
+CJE=1.98486e-10 VJE=0.95 MJE=0.23 TF=1e-09
+XTF=1 VTF=10 ITF=0.01 CJC=0
+VJC=0.95 MJC=0.23 XCJC=0.9 FC=0.5
+TR=1e-07 PTF=0 KF=0 AF=1
.ENDS





*TIP120
**************************************
* Model Generated by MODPEX *
*Copyright(c) Symmetry Design Systems*
* All Rights Reserved *
* UNPUBLISHED LICENSED SOFTWARE *
* Contains Proprietary Information *
* Which is The Property of *
* SYMMETRY OR ITS LICENSORS *
* Modeling services provided by *
* Interface Technologies www.i-t.com *
**************************************
.SUBCKT TIP120 1 2 3
* Model generated on Dec 26, 2003
* Model format: PSpice
* Darlington macro model
* External node designations
* Node 1 -> Collect
* Node 2 -> Base
* Node 3 -> Emitter
Q1 1 2 4 qmodel
Q2 1 4 3 q1model 2.80758
D1 3 1 dmodel
R1 2 4 10000
R2 4 3 1000
.MODEL dmodel d
+IS=1e-12 RS=10 N=1 XTI=3
+CJO=0 VJ=0.75 M=0.33 FC=0.5
.MODEL qmodel npn
+IS=3.29109e-14 BF=391.787 NF=0.894469 VAF=33.1384
+IKF=0.198445 ISE=1.21403e-10 NE=1.6375 BR=0.1
+NR=1.34795 VAR=135.277 IKR=0.137744 ISC=1.01287e-13
+NC=1.97483 RB=4.90772 IRB=0.200762 RBM=4.90772
+RE=0.0826202 RC=0.413101 XTB=0.584577 XTI=2.92564 EG=1.05
+CJE=2.09731e-10 VJE=0.95 MJE=0.23 TF=1e-09
+XTF=1 VTF=10 ITF=0.01 CJC=1.53283e-10
+VJC=0.95 MJC=0.23 XCJC=0.9 FC=0.5
+TR=1e-07 PTF=0 KF=0 AF=1
.MODEL q1model npn
+IS=3.29109e-14 BF=391.787 NF=0.894469 VAF=33.1384
+IKF=0.198445 ISE=1.21403e-10 NE=1.6375 BR=0.1
+NR=1.34795 VAR=135.277 IKR=0.137744 ISC=1.01287e-13
+NC=1.97483 RB=4.90772 IRB=0.200762 RBM=4.90772
+RE=0.0826202 RC=0.413101 XTB=0.584577 XTI=2.92564 EG=1.05
+CJE=2.09731e-10 VJE=0.95 MJE=0.23 TF=1e-09
+XTF=1 VTF=10 ITF=0.01 CJC=0
+VJC=0.95 MJC=0.23 XCJC=0.9 FC=0.5
+TR=1e-07 PTF=0 KF=0 AF=1
.ENDS



*TIP121
**************************************
* Model Generated by MODPEX *
*Copyright(c) Symmetry Design Systems*
* All Rights Reserved *
* UNPUBLISHED LICENSED SOFTWARE *
* Contains Proprietary Information *
* Which is The Property of *
* SYMMETRY OR ITS LICENSORS *
* Modeling services provided by *
* Interface Technologies www.i-t.com *
**************************************
.SUBCKT TIP121 1 2 3
* Model generated on Feb 8, 2004
* Model format: PSpice
* Darlington macro model
* External node designations
* Node 1 -> Collect
* Node 2 -> Base
* Node 3 -> Emitter
Q1 1 2 4 qmodel
Q2 1 4 3 q1model 2.80758
D1 3 1 dmodel
R1 2 4 10000
R2 4 3 1000
.MODEL dmodel d
+IS=1e-12 RS=10 N=1 XTI=3
+CJO=0 VJ=0.75 M=0.33 FC=0.5
.MODEL qmodel npn
+IS=3.29109e-14 BF=391.787 NF=0.894469 VAF=33.1384
+IKF=0.198445 ISE=1.21403e-10 NE=1.6375 BR=0.1
+NR=1.34795 VAR=135.277 IKR=0.137744 ISC=1.01287e-13
+NC=1.97483 RB=4.90772 IRB=0.200762 RBM=4.90772
+RE=0.0826202 RC=0.413101 XTB=0.584577 XTI=2.92564 EG=1.05
+CJE=2.09731e-10 VJE=0.95 MJE=0.23 TF=1e-09
+XTF=1 VTF=10 ITF=0.01 CJC=1.53283e-10
+VJC=0.95 MJC=0.23 XCJC=0.9 FC=0.5
+TR=1e-07 PTF=0 KF=0 AF=1
.MODEL q1model npn
+IS=3.29109e-14 BF=391.787 NF=0.894469 VAF=33.1384
+IKF=0.198445 ISE=1.21403e-10 NE=1.6375 BR=0.1
+NR=1.34795 VAR=135.277 IKR=0.137744 ISC=1.01287e-13
+NC=1.97483 RB=4.90772 IRB=0.200762 RBM=4.90772
+RE=0.0826202 RC=0.413101 XTB=0.584577 XTI=2.92564 EG=1.05
+CJE=2.09731e-10 VJE=0.95 MJE=0.23 TF=1e-09
+XTF=1 VTF=10 ITF=0.01 CJC=0
+VJC=0.95 MJC=0.23 XCJC=0.9 FC=0.5
+TR=1e-07 PTF=0 KF=0 AF=1
.ENDS



*TIP122
.SUBCKT TIP122 1 2 3
**************************************
* Model Generated by MODPEX *
*Copyright(c) Symmetry Design Systems*
* All Rights Reserved *
* UNPUBLISHED LICENSED SOFTWARE *
* Contains Proprietary Information *
* Which is The Property of *
* SYMMETRY OR ITS LICENSORS *
* Modeling services provided by *
* Interface Technologies www.i-t.com *
**************************************
* Model generated on Dec 19, 2003
* Model format: PSpice
* Darlington macro model
* External node designations
* Node 1 -> Collect
* Node 2 -> Base
* Node 3 -> Emitter
Q1 1 2 4 qmodel
Q2 1 4 3 q1model 2.7545
D1 3 1 dmodel
R1 2 4 10000
R2 4 3 1000
.MODEL dmodel d
+IS=1e-12 RS=10 N=1 XTI=3
+CJO=0 VJ=0.75 M=0.33 FC=0.5
.MODEL qmodel npn
+IS=1.15528e-13 BF=387.828 NF=0.937439 VAF=30
+IKF=0.270029 ISE=5.36359e-11 NE=1.54544 BR=0.1
+NR=1.5 VAR=134.979 IKR=0.109764 ISC=1.00329e-13
+NC=1.97549 RB=4.9473 IRB=0.200762 RBM=4.9473
+RE=0.0964614 RC=0.482307 XTB=0.580269 XTI=2.92642 EG=1.05
+CJE=2.08206e-10 VJE=0.945586 MJE=0.23 TF=1e-09
+XTF=1 VTF=10 ITF=0.01 CJC=1.67927e-10
+VJC=0.754327 MJC=0.289398 XCJC=0.9 FC=0.5
+TR=1e-07 PTF=0 KF=0 AF=1
.MODEL q1model npn
+IS=1.15528e-13 BF=387.828 NF=0.937439 VAF=30
+IKF=0.270029 ISE=5.36359e-11 NE=1.54544 BR=0.1
+NR=1.5 VAR=134.979 IKR=0.109764 ISC=1.00329e-13
+NC=1.97549 RB=4.9473 IRB=0.200762 RBM=4.9473
+RE=0.0964614 RC=0.482307 XTB=0.580269 XTI=2.92642 EG=1.05
+CJE=2.08206e-10 VJE=0.945586 MJE=0.23 TF=1e-09
+XTF=1 VTF=10 ITF=0.01 CJC=0
+VJC=0.754327 MJC=0.289398 XCJC=0.9 FC=0.5
+TR=1e-07 PTF=0 KF=0 AF=1
.ENDS





*TIP140
**************************************
* Model Generated by MODPEX *
*Copyright(c) Symmetry Design Systems*
* All Rights Reserved *
* UNPUBLISHED LICENSED SOFTWARE *
* Contains Proprietary Information *
* Which is The Property of *
* SYMMETRY OR ITS LICENSORS *
* Modeling services provided by *
* Interface Technologies www.i-t.com *
**************************************
.SUBCKT TIP140 1 2 3
* Model generated on Feb 8, 2004
* Model format: PSpice
* Darlington macro model
* External node designations
* Node 1 -> Collect
* Node 2 -> Base
* Node 3 -> Emitter
Q1 1 2 4 qmodel
Q2 1 4 3 q1model 19.6725
D1 3 1 dmodel
R1 2 4 8000
R2 4 3 40
.MODEL dmodel d
+IS=1e-12 RS=10 N=1 XTI=3
+CJO=0 VJ=0.75 M=0.33 FC=0.5
.MODEL qmodel npn
+IS=2.92836e-16 BF=233.76 NF=1.2 VAF=1000
+IKF=0.222129 ISE=4.61322e-11 NE=2.48158 BR=1.89854
+NR=0.75 VAR=168.458 IKR=0.108495 ISC=9.99999e-14
+NC=2.00001 RB=7.90758 IRB=0.2 RBM=7.90758
+RE=0.275456 RC=1.42279 XTB=0.232595 XTI=3.02293 EG=1.206
+CJE=1e-11 VJE=0.75 MJE=0.33 TF=1e-09
+XTF=1 VTF=10 ITF=0.01 CJC=1.67157e-09
+VJC=0.95 MJC=0.23 XCJC=0.9 FC=0.5
+TR=1e-07 PTF=0 KF=0 AF=1
.MODEL q1model npn
+IS=2.92836e-16 BF=233.76 NF=1.2 VAF=1000
+IKF=0.222129 ISE=4.61322e-11 NE=2.48158 BR=1.89854
+NR=0.75 VAR=168.458 IKR=0.108495 ISC=9.99999e-14
+NC=2.00001 RB=7.90758 IRB=0.2 RBM=7.90758
+RE=0.275456 RC=1.42279 XTB=0.232595 XTI=3.02293 EG=1.206
+CJE=1e-11 VJE=0.75 MJE=0.33 TF=1e-09
+XTF=1 VTF=10 ITF=0.01 CJC=0
+VJC=0.95 MJC=0.23 XCJC=0.9 FC=0.5
+TR=1e-07 PTF=0 KF=0 AF=1
.ENDS



*TIP141
**************************************
* Model Generated by MODPEX *
*Copyright(c) Symmetry Design Systems*
* All Rights Reserved *
* UNPUBLISHED LICENSED SOFTWARE *
* Contains Proprietary Information *
* Which is The Property of *
* SYMMETRY OR ITS LICENSORS *
* Modeling services provided by *
* Interface Technologies www.i-t.com *
**************************************
.SUBCKT TIP141 1 2 3
* Model generated on Feb 8, 2004
* Model format: PSpice
* Darlington macro model
* External node designations
* Node 1 -> Collect
* Node 2 -> Base
* Node 3 -> Emitter
Q1 1 2 4 qmodel
Q2 1 4 3 q1model 19.6725
D1 3 1 dmodel
R1 2 4 8000
R2 4 3 40
.MODEL dmodel d
+IS=1e-12 RS=10 N=1 XTI=3
+CJO=0 VJ=0.75 M=0.33 FC=0.5
.MODEL qmodel npn
+IS=2.92836e-16 BF=233.76 NF=1.2 VAF=1000
+IKF=0.222129 ISE=4.61322e-11 NE=2.48158 BR=1.89854
+NR=0.75 VAR=168.458 IKR=0.108495 ISC=9.99999e-14
+NC=2.00001 RB=7.90758 IRB=0.2 RBM=7.90758
+RE=0.275456 RC=1.42279 XTB=0.232595 XTI=3.02293 EG=1.206
+CJE=1e-11 VJE=0.75 MJE=0.33 TF=1e-09
+XTF=1 VTF=10 ITF=0.01 CJC=1.67157e-09
+VJC=0.95 MJC=0.23 XCJC=0.9 FC=0.5
+TR=1e-07 PTF=0 KF=0 AF=1
.MODEL q1model npn
+IS=2.92836e-16 BF=233.76 NF=1.2 VAF=1000
+IKF=0.222129 ISE=4.61322e-11 NE=2.48158 BR=1.89854
+NR=0.75 VAR=168.458 IKR=0.108495 ISC=9.99999e-14
+NC=2.00001 RB=7.90758 IRB=0.2 RBM=7.90758
+RE=0.275456 RC=1.42279 XTB=0.232595 XTI=3.02293 EG=1.206
+CJE=1e-11 VJE=0.75 MJE=0.33 TF=1e-09
+XTF=1 VTF=10 ITF=0.01 CJC=0
+VJC=0.95 MJC=0.23 XCJC=0.9 FC=0.5
+TR=1e-07 PTF=0 KF=0 AF=1
.ENDS



*TIP142
**************************************
* Model Generated by MODPEX *
*Copyright(c) Symmetry Design Systems*
* All Rights Reserved *
* UNPUBLISHED LICENSED SOFTWARE *
* Contains Proprietary Information *
* Which is The Property of *
* SYMMETRY OR ITS LICENSORS *
* Modeling services provided by *
* Interface Technologies www.i-t.com *
**************************************
.SUBCKT TIP142 1 2 3
* Model generated on Feb 8, 2004
* Model format: PSpice
* Darlington macro model
* External node designations
* Node 1 -> Collect
* Node 2 -> Base
* Node 3 -> Emitter
Q1 1 2 4 qmodel
Q2 1 4 3 q1model 19.6725
D1 3 1 dmodel
R1 2 4 8000
R2 4 3 40
.MODEL dmodel d
+IS=1e-12 RS=10 N=1 XTI=3
+CJO=0 VJ=0.75 M=0.33 FC=0.5
.MODEL qmodel npn
+IS=2.92836e-16 BF=233.76 NF=1.2 VAF=1000
+IKF=0.222129 ISE=4.61322e-11 NE=2.48158 BR=1.89854
+NR=0.75 VAR=168.458 IKR=0.108495 ISC=9.99999e-14
+NC=2.00001 RB=7.90758 IRB=0.2 RBM=7.90758
+RE=0.275456 RC=1.42279 XTB=0.232595 XTI=3.02293 EG=1.206
+CJE=1e-11 VJE=0.75 MJE=0.33 TF=1e-09
+XTF=1 VTF=10 ITF=0.01 CJC=1.67157e-09
+VJC=0.95 MJC=0.23 XCJC=0.9 FC=0.5
+TR=1e-07 PTF=0 KF=0 AF=1
.MODEL q1model npn
+IS=2.92836e-16 BF=233.76 NF=1.2 VAF=1000
+IKF=0.222129 ISE=4.61322e-11 NE=2.48158 BR=1.89854
+NR=0.75 VAR=168.458 IKR=0.108495 ISC=9.99999e-14
+NC=2.00001 RB=7.90758 IRB=0.2 RBM=7.90758
+RE=0.275456 RC=1.42279 XTB=0.232595 XTI=3.02293 EG=1.206
+CJE=1e-11 VJE=0.75 MJE=0.33 TF=1e-09
+XTF=1 VTF=10 ITF=0.01 CJC=0
+VJC=0.95 MJC=0.23 XCJC=0.9 FC=0.5
+TR=1e-07 PTF=0 KF=0 AF=1
.ENDS

.SUBCKT BDW93C 1 2 3 
Q1 1 2 4 Q1model
Q2 1 4 3 Q2model 5.2266
D1 3 1 Dmodel
R1 2 4 10.000E3
R2 4 3 600
.MODEL Dmodel D
+ IS=1.67E-12 N=1.01 RS=1.854
+ CJO=2.8833E-10 M=0.3227 VJ=0.4449
+ BV=110.0 IBV=0.1
.MODEL Q1model NPN
+ IS=1.4507E-14 BF=7.88E3 NF=0.85
+ VAF=138.92 IKF=0.8207 ISE=6.298E-13
+ NE=1.2 BR=21.99 NR=0.8
+ VAR=200 IKR=0.5 ISC=1.367E-13
+ NC=2.8 RB=6.193 NK=0.6 
+ RE=0.001 RC=0.185 EG=1.110
+ CJE=1.055E-10 VJE=0.7775 MJE=0.4512 
+ CJC=1.601E-10 VJC=0.8966 MJC=0.3035
+ XCJC=0.4455 FC=0.5
.MODEL Q2model NPN 
+ IS=1.4507E-14 BF=7.88E3 NF=0.85
+ VAF=138.92 IKF=0.8207 ISE=6.298E-13
+ NE=1.2 BR=21.99 NR=0.8
+ VAR=200 IKR=0.5 ISC=1.367E-13
+ NC=2.8 RB=6.193 NK=0.6 
+ RE=0.001 RC=0.185 EG=1.110
+ CJE=1.055E-10 VJE=0.7775 MJE=0.4512 
+ CJC=1.601E-10 VJC=0.8966 MJC=0.3035
+ XCJC=0.4455 FC=0.5
.ENDS BDW93C

.SUBCKT bd679 1 2 3
* Model generated on Feb 14, 2004
* Model format: PSpice
* Darlington macro model
* External node designations
* Node 1 -> Collect
* Node 2 -> Base
* Node 3 -> Emitter
Q1 1 2 4 qmodel
Q2 1 4 3 q1model 5.21716
D1 3 1 dmodel
R1 2 4 8000
R2 4 3 120
.MODEL dmodel d
+IS=1e-12 RS=9.53186 N=0.964987 XTI=2.96499
+CJO=0 VJ=0.75 M=0.33 FC=0.5
.MODEL qmodel npn
+IS=6.82736e-17 BF=43.4441 NF=0.85 VAF=30
+IKF=1.14362 ISE=9.48937e-15 NE=2.04295 BR=0.665831
+NR=1.5 VAR=64.8234 IKR=0.0980345 ISC=9.48937e-15
+NC=1 RB=20.4512 IRB=0.277791 RBM=16.9143
+RE=0.574152 RC=6.88011 XTB=0.401039 XTI=2.96301 EG=1.05
+CJE=1e-11 VJE=0.75 MJE=0.33 TF=1e-09
+XTF=1 VTF=10 ITF=0.01 CJC=1e-11
+VJC=0.75 MJC=0.33 XCJC=0.9 FC=0.5
+TR=1e-07 PTF=0 KF=0 AF=1
.MODEL q1model npn
+IS=6.82736e-17 BF=43.4441 NF=0.85 VAF=30
+IKF=1.14362 ISE=9.48937e-15 NE=2.04295 BR=0.665831
+NR=1.5 VAR=64.8234 IKR=0.0980345 ISC=9.48937e-15
+NC=1 RB=20.4512 IRB=0.277791 RBM=16.9143
+RE=0.574152 RC=6.88011 XTB=0.401039 XTI=2.96301 EG=1.05
+CJE=1e-11 VJE=0.75 MJE=0.33 TF=1e-09
+XTF=1 VTF=10 ITF=0.01 CJC=0
+VJC=0.75 MJC=0.33 XCJC=0.9 FC=0.5
+TR=1e-07 PTF=0 KF=0 AF=1
.ENDS

.Subckt KT827A   1  2  3
*    Terminals:   C  B  E    *  Darlington   NPN
Q1 1 2 4 q827a 0.1
Q2 1 4 3 q827a
R1 2 4  8K
R2 4 3  150
D1 3 1  d827a
.Model q827a NPN(Is=1.129p Xti=3 Eg=1.11 Vaf=100 Bf=161 Ise=31.17p  Ne=1.557 
+Ikf=20 Nk=.81 Xtb=2 Br=1 Isc=23.5p Nc=1.489 Ikr=31.34m Rc=.1682 Cjc=251.5p 
+Mjc=.5045 Vjc=.75 Fc=.5 Cje=286.3p Mje=.4961 Vje=.75 Tr=810n Tf=23.64n Itf=10.92 
+Xtf=.3795 Vtf=10 Rb=.1)
.Model d827a D(Is=1.2p N=1 RS=.1 BV=100 IBV=.001 CJO=260p TT=500n)
.Ends

*BDV65;BJTs NPN;Darlington;60V 12A
.SUBCKT BDV65    1 2 3
*    TERMINALS:  C B E
Q1 1 2 4 QPWR .1
Q2 1 4 3 QPWR
R1 2 4  6.67K
R2 4 3  33.3
D1 3 1  DSUB
.MODEL QPWR NPN (IS=14.4P NF=1 BF=89 VAF=139 IKF=9.6 ISE=1.32N NE=2
+ BR=4 NR=1 VAR=20 IKR=14.4 RE=55M RB=.22 RC=22M XTB=1.5
+ CJE=1.6N VJE=.74 MJE=.45 CJC=231P VJC=1.1 MJC=.24 TF=89.5N TR=2.21U)
.MODEL DSUB D (IS=14.4P N=1 RS=55M BV=60 IBV=.001 CJO=231P TT=2.21U)
.ENDS 

*BDV65A;BJTs NPN;Darlington;80V 12A
.SUBCKT BDV65A   1 2 3
*    TERMINALS:  C B E
Q1 1 2 4 QPWR .1
Q2 1 4 3 QPWR
R1 2 4  6.67K
R2 4 3  33.3
D1 3 1  DSUB
.MODEL QPWR NPN (IS=14.4P NF=1 BF=89 VAF=161 IKF=9.6 ISE=1.32N NE=2
+ BR=4 NR=1 VAR=20 IKR=14.4 RE=55M RB=.22 RC=22M XTB=1.5
+ CJE=1.6N VJE=.74 MJE=.45 CJC=231P VJC=1.1 MJC=.24 TF=89.5N TR=2.21U)
.MODEL DSUB D (IS=14.4P N=1 RS=55M BV=80 IBV=.001 CJO=231P TT=2.21U)
.ENDS 

*BDV65B;BJTs NPN;Darlington;100V 12A
.SUBCKT BDV65B   1 2 3
*    TERMINALS:  C B E
Q1 1 2 4 QPWR .1
Q2 1 4 3 QPWR
R1 2 4  6.67K
R2 4 3  33.3
D1 3 1  DSUB
.MODEL QPWR NPN (IS=14.4P NF=1 BF=89 VAF=180 IKF=9.6 ISE=1.32N NE=2
+ BR=4 NR=1 VAR=20 IKR=14.4 RE=55M RB=.22 RC=22M XTB=1.5
+ CJE=1.6N VJE=.74 MJE=.45 CJC=231P VJC=1.1 MJC=.24 TF=89.5N TR=2.21U)
.MODEL DSUB D (IS=14.4P N=1 RS=55M BV=100 IBV=.001 CJO=231P TT=2.21U)
.ENDS 

*BDV65C;BJTs NPN;Darlington;120V 12A
.SUBCKT BDV65B   1 2 3
*    TERMINALS:  C B E
Q1 1 2 4 QPWR .1
Q2 1 4 3 QPWR
R1 2 4  6.67K
R2 4 3  33.3
D1 3 1  DSUB
.MODEL QPWR NPN (IS=14.4P NF=1 BF=89 VAF=180 IKF=9.6 ISE=1.32N NE=2
+ BR=4 NR=1 VAR=20 IKR=14.4 RE=55M RB=.22 RC=22M XTB=1.5
+ CJE=1.6N VJE=.74 MJE=.45 CJC=231P VJC=1.1 MJC=.24 TF=89.5N TR=2.21U)
.MODEL DSUB D (IS=14.4P N=1 RS=55M BV=120 IBV=.001 CJO=231P TT=2.21U)
.ENDS 

.SUBCKT mjd44e3t4 1 2 3
* Model generated on Mar  1, 2004
* Model format: PSpice
* Darlington macro model
* External node designations
* Node 1 -> Collect
* Node 2 -> Base
* Node 3 -> Emitter
Q1 1 2 4 qmodel
Q2 1 4 3 q1model 16.1841
D1 3 1 dmodel
R1 2 4 10000
R2 4 3 1000
* Default values used in dmodel
*   EG=1.11 TT=0 BV=infinite
.MODEL dmodel d
+IS=1e-12 RS=10 N=1 XTI=3
+CJO=0 VJ=0.75 M=0.33 FC=0.5
.MODEL qmodel npn
+IS=1.13918e-13 BF=124.342 NF=1.2 VAF=122.104
+IKF=0.134186 ISE=1.07103e-12 NE=1.74811 BR=1.03248
+NR=0.993899 VAR=101.758 IKR=0.0991695 ISC=1e-13
+NC=2 RB=12.2096 IRB=0.2 RBM=12.2096
+RE=0.00230801 RC=0.0115401 XTB=0.498705 XTI=3.00501 EG=1.206
+CJE=1e-11 VJE=0.75 MJE=0.33 TF=1e-09
+XTF=1 VTF=10 ITF=0.01 CJC=1.5028e-10
+VJC=0.917399 MJC=0.23 XCJC=0.9 FC=0.5
+TR=1e-07 PTF=0 KF=0 AF=1
.MODEL q1model npn
+IS=1.13918e-13 BF=124.342 NF=1.2 VAF=122.104
+IKF=0.134186 ISE=1.07103e-12 NE=1.74811 BR=1.03248
+NR=0.993899 VAR=101.758 IKR=0.0991695 ISC=1e-13
+NC=2 RB=12.2096 IRB=0.2 RBM=12.2096
+RE=0.00230801 RC=0.0115401 XTB=0.498705 XTI=3.00501 EG=1.206
+CJE=1e-11 VJE=0.75 MJE=0.33 TF=1e-09
+XTF=1 VTF=10 ITF=0.01 CJC=0
+VJC=0.917399 MJC=0.23 XCJC=0.9 FC=0.5
+TR=1e-07 PTF=0 KF=0 AF=1
.ENDS

.SUBCKT mj11028 1 2 3
* Model generated on Apr 24, 02
* MODEL FORMAT: PSpice
* Darlington macro model
* External node designations
* Node 1 -> Collect
* Node 2 -> Base
* Node 3 -> Emitter
Q1 1 2 4 qmodel
Q2 1 4 3 q1model 23.3162
D1 3 1 dmodel
R1 2 4 3000
R2 4 3 25
* Default values used in dmodel
*   EG=1.11 TT=0 BV=infinite
.MODEL dmodel d
+IS=1e-12 RS=0 N=0.893521 XTI=2.89352
+CJO=0 VJ=0.75 M=0.33 FC=0.5
.MODEL qmodel npn
+IS=5.80886e-13 BF=266.941 NF=1.05049 VAF=26.9561
+IKF=0.423224 ISE=3.85324e-10 NE=3.96209 BR=0.092321
+NR=1.33263 VAR=242.006 IKR=0.0967584 ISC=1.00385e-13
+NC=1.88632 RB=11.0165 IRB=0.0794774 RBM=0.0036418
+RE=0.000158222 RC=0.966115 XTB=0.0877601 XTI=4 EG=1.206
+CJE=1e-11 VJE=0.75 MJE=0.33 TF=1e-09
+XTF=1 VTF=10 ITF=0.01 CJC=1e-11
+VJC=0.75 MJC=0.33 XCJC=0.9 FC=0.5
+TR=1e-07 PTF=0 KF=0 AF=1
.MODEL q1model npn
+IS=5.80886e-13 BF=266.941 NF=1.05049 VAF=26.9561
+IKF=0.423224 ISE=3.85324e-10 NE=3.96209 BR=0.092321
+NR=1.33263 VAR=242.006 IKR=0.0967584 ISC=1.00385e-13
+NC=1.88632 RB=11.0165 IRB=0.0794774 RBM=0.0036418
+RE=0.000158222 RC=0.966115 XTB=0.0877601 XTI=4 EG=1.206
+CJE=1e-11 VJE=0.75 MJE=0.33 TF=1e-09
+XTF=1 VTF=10 ITF=0.01 CJC=0
+VJC=0.75 MJC=0.33 XCJC=0.9 FC=0.5
+TR=1e-07 PTF=0 KF=0 AF=1
.ENDS mj11028

.SUBCKT mj11012 1 2 3
* Model generated on Feb 14, 2004
* Model format: PSpice
* Darlington macro model
* External node designations
* Node 1 -> Collect
* Node 2 -> Base
* Node 3 -> Emitter
Q1 1 2 4 qmodel
Q2 1 4 3 q1model 19.6835
D1 3 1 dmodel
R1 2 4 8000
R2 4 3 40
* Default values used in dmodel
*   EG=1.11 TT=0 BV=infinite
.MODEL dmodel d
+IS=1e-12 RS=10.3313 N=1.00331 XTI=3.00331
+CJO=0 VJ=0.75 M=0.33 FC=0.5
.MODEL qmodel npn
+IS=6.36816e-13 BF=208.342 NF=0.85 VAF=177.467
+IKF=0.220423 ISE=4.64155e-12 NE=1.25773 BR=0.969721
+NR=0.75 VAR=137.332 IKR=0.0995681 ISC=1e-13
+NC=2.00331 RB=7.44307 IRB=0.203313 RBM=7.44307
+RE=0.107701 RC=1.33729 XTB=0.486501 XTI=3.00531 EG=1.1908
+CJE=1e-11 VJE=0.75 MJE=0.33 TF=1e-09
+XTF=1 VTF=10 ITF=0.01 CJC=1e-11
+VJC=0.75 MJC=0.33 XCJC=0.9 FC=0.5
+TR=1e-07 PTF=0 KF=0 AF=1
.MODEL q1model npn
+IS=6.36816e-13 BF=208.342 NF=0.85 VAF=177.467
+IKF=0.220423 ISE=4.64155e-12 NE=1.25773 BR=0.969721
+NR=0.75 VAR=137.332 IKR=0.0995681 ISC=1e-13
+NC=2.00331 RB=7.44307 IRB=0.203313 RBM=7.44307
+RE=0.107701 RC=1.33729 XTB=0.486501 XTI=3.00531 EG=1.1908
+CJE=1e-11 VJE=0.75 MJE=0.33 TF=1e-09
+XTF=1 VTF=10 ITF=0.01 CJC=0
+VJC=0.75 MJC=0.33 XCJC=0.9 FC=0.5
+TR=1e-07 PTF=0 KF=0 AF=1
.ENDS

.SUBCKT mj11016 1 2 3
* Model generated on Feb 14, 2004
* Model format: PSpice
* Darlington macro model
* External node designations
* Node 1 -> Collect
* Node 2 -> Base
* Node 3 -> Emitter
Q1 1 2 4 qmodel
Q2 1 4 3 q1model 19.6836
D1 3 1 dmodel
R1 2 4 8000
R2 4 3 40
* Default values used in dmodel
*   EG=1.11 TT=0 BV=infinite
.MODEL dmodel d
+IS=1e-12 RS=10.3313 N=1.00331 XTI=3.00331
+CJO=0 VJ=0.75 M=0.33 FC=0.5
.MODEL qmodel npn
+IS=6.36824e-13 BF=208.345 NF=0.85 VAF=177.467
+IKF=0.22066 ISE=4.64135e-12 NE=1.25788 BR=0.969721
+NR=0.75 VAR=137.332 IKR=0.0995681 ISC=1e-13
+NC=2.00331 RB=7.44307 IRB=0.203313 RBM=7.44307
+RE=0.107725 RC=1.3373 XTB=0.4865 XTI=3.00531 EG=1.1908
+CJE=1e-11 VJE=0.75 MJE=0.33 TF=1e-09
+XTF=1 VTF=10 ITF=0.01 CJC=1e-11
+VJC=0.75 MJC=0.33 XCJC=0.9 FC=0.5
+TR=1e-07 PTF=0 KF=0 AF=1
.MODEL q1model npn
+IS=6.36824e-13 BF=208.345 NF=0.85 VAF=177.467
+IKF=0.22066 ISE=4.64135e-12 NE=1.25788 BR=0.969721
+NR=0.75 VAR=137.332 IKR=0.0995681 ISC=1e-13
+NC=2.00331 RB=7.44307 IRB=0.203313 RBM=7.44307
+RE=0.107725 RC=1.3373 XTB=0.4865 XTI=3.00531 EG=1.1908
+CJE=1e-11 VJE=0.75 MJE=0.33 TF=1e-09
+XTF=1 VTF=10 ITF=0.01 CJC=0
+VJC=0.75 MJC=0.33 XCJC=0.9 FC=0.5
+TR=1e-07 PTF=0 KF=0 AF=1
.ENDS

.SUBCKT mje5740 1 2 3
* Model generated on Jan 18, 2004
* Model format: PSpice
* Darlington macro model
* External node designations
* Node 1 -> Collect
* Node 2 -> Base
* Node 3 -> Emitter
Q1 1 2 4 qmodel
Q2 1 4 3 q1model 1
D1 3 1 dmodel
R1 2 4 100
R2 4 3 50
* Default values used in dmodel
*   EG=1.11 TT=0 BV=infinite
.MODEL dmodel d
+IS=1e-12 RS=10 N=1 XTI=3
+CJO=0 VJ=0.75 M=0.33 FC=0.5
.MODEL qmodel npn
+IS=2.94555e-12 BF=894.239 NF=1.04954 VAF=30
+IKF=0.0421578 ISE=1e-16 NE=1 BR=1.17922
+NR=1.5 VAR=15.6861 IKR=0.10304 ISC=1e-16
+NC=2 RB=0.1 IRB=0.1 RBM=0.1
+RE=0.0470537 RC=0.410595 XTB=0 XTI=2.70973 EG=1.05
+CJE=1e-11 VJE=0.75 MJE=0.33 TF=1e-09
+XTF=1 VTF=10 ITF=0.01 CJC=1e-11
+VJC=0.75 MJC=0.33 XCJC=0.9 FC=0.5
+TR=1e-07 PTF=0 KF=0 AF=1
.MODEL q1model npn
+IS=2.94555e-12 BF=894.239 NF=1.04954 VAF=30
+IKF=0.0421578 ISE=1e-16 NE=1 BR=1.17922
+NR=1.5 VAR=15.6861 IKR=0.10304 ISC=1e-16
+NC=2 RB=0.1 IRB=0.1 RBM=0.1
+RE=0.0470537 RC=0.410595 XTB=0 XTI=2.70973 EG=1.05
+CJE=1e-11 VJE=0.75 MJE=0.33 TF=1e-09
+XTF=1 VTF=10 ITF=0.01 CJC=0
+VJC=0.75 MJC=0.33 XCJC=0.9 FC=0.5
+TR=1e-07 PTF=0 KF=0 AF=1
.ENDS

.SUBCKT bu323z 1 2 3
* Model generated on Jan 31, 2004
* Model format: PSpice
* Darlington macro model
* External node designations
* Node 1 -> Collect
* Node 2 -> Base
* Node 3 -> Emitter
Q1 1 2 4 qmodel
Q2 1 4 3 q1model 9.83735
D1 3 1 dmodel
R1 2 4 1000
R2 4 3 10
* Default values used in dmodel
*   EG=1.11 TT=0 BV=infinite
.MODEL dmodel d
+IS=1e-12 RS=9.53918 N=0.852711 XTI=2.85271
+CJO=0 VJ=0.75 M=0.33 FC=0.5
.MODEL qmodel npn
+IS=1.04272e-12 BF=70.5483 NF=0.85 VAF=53.667
+IKF=3.37516 ISE=3.45501e-12 NE=1.07329 BR=0.853302
+NR=0.856681 VAR=54.0211 IKR=0.0883308 ISC=1e-13
+NC=1.85271 RB=9.51354 IRB=0.1 RBM=9.51354