.subckt nsl-32sr3 A K 1 2
D1 A P001 Dled
Va P001 K 0
B1 N001 0 V=uramp(i(Va))
D2 N001 X Dtau
C1 X 0 1µ
R1 1 2 R=12+(i0/limit(1p,v(x),99))**k
C2 1 2 1p Rpar=30Meg
C3 A K 10p
.model dled d vfwd=2 ron=10 roff=10Meg  Vrev=3.9 Rrev=10k
.model dtau d  ron=6.8k roff=540k
.param i0=3.3 k=0.76
.ends nsl-32sr3
