*
* =======================================
* PSpice-Simulationsmodell für Heißleiter
* =======================================    
*
*EPCOS OHG, DEUTSCHLANDSBERG   
*
*"NTC.LIB" Version 1.5,  13.03.2013
*
*
*
* Grundmodell:
* ============
*
*****************************************************************
*$
.subckt NTC 1 2 Params:B0=1, B1=1, B2=1, B3=0, B4=0, R25=10, 
+ CTH=1, GTH0=1, GTH1=1, T=1,
+ TK = 273.15
*****************************************************************
*
Gthem 1 4  Value={V(1,4)/(R25*T*(exp((((B4/(V(3)+TK+TEMP)+B3)/(V(3)+TK+TEMP)+B2)/(V(3)+TK+TEMP)+B1)/(V(3)+TK+TEMP)+B0)))}
*
RP 1 4 1T
RS 4 2 1n
*
Gtmp1 0 3  Value={V(1,4)*V(1,4)/(R25*T*(exp((((B4/(V(3)+TK+TEMP)+B3)/(V(3)+TK+TEMP)+B2)/(V(3)+TK+TEMP)+B1)/(V(3)+TK+TEMP)+B0)))}
C_par 3 0 {CTH}
R_par 3 0 1T
Gpar  3 0 Value={V(3)*(GTH0+(GTH1*(V(3)+TEMP)))}
*
.ends 
*$
**********************************************************
*
*
*
*
*
*
*
* ===================================
* Typen - Update vom März 2013
* ===================================
*
*
*
*
* Typen-Modelle
* =============
*
*
* Typenmodell für C619/10k :
* --------------------------
.SUBCKT C619_10000 1 2  PARAMS: TOL=0
X1 1 2 NTC Params: 
+ B0=-11.9847664230072 
+ B1=3069.94526980822 
+ B2=418296.198088036 
+ B3=-102412371.979498 
+ B4=6690146322.502 
+ R25=10000 
+ T={1+TOL/100} 
+ CTH=0.012 GTH0=0.0034586 GTH1=3.11E-6 TK=273.15
.ENDS
*$
*
*
* Typenmodell für C619/22k :
* --------------------------
.SUBCKT C619_22000 1 2  PARAMS: TOL=0
X1 1 2 NTC Params: 
+ B0=-13.259578306489 
+ B1=4661.90110754562 
+ B2=-361729.025725119 
+ B3=69407497.3353788 
+ B4=-7291623710.76263 
+ R25=22000 
+ T={1+TOL/100} 
+ CTH=0.012 GTH0=0.0034586 GTH1=3.11E-6 TK=273.15
.ENDS
*$
*
*
* Typenmodell für C619/47k :
* --------------------------
.SUBCKT C619_47000 1 2  PARAMS: TOL=0
X1 1 2 NTC Params: 
+ B0=-16.1431695445133 
+ B1=7091.52492551577 
+ B2=-1286728.55012098 
+ B3=246295702.783567 
+ B4=-19425103001.548 
+ R25=47000 
+ T={1+TOL/100} 
+ CTH=0.012 GTH0=0.0034586 GTH1=3.11E-6 TK=273.15
.ENDS
*$
*
*
* Typenmodell für C620/220 :
* ---------------------------
.SUBCKT C620_220 1 2  PARAMS: TOL=0
X1 1 2 NTC Params: 
+ B0=-12.11397097
+ B1=4743.501188
+ B2=-585151.8379
+ B3=97752905.8
+ B4=-7123523714 
+ R25=220 
+ T={1+TOL/100} 
+ CTH=0.0031 GTH0=0.0036935 GTH1=1.717E-6 TK=273.15
.ENDS
*$
*
*
* Typenmodell für C620/330 :
* ---------------------------
.SUBCKT C620_330 1 2  PARAMS: TOL=0

X1 1 2 NTC Params: 
+ B0=-13.68272308 
+ B1=6235.690414
+ B2=-1214209.696
+ B3=228397565.9
+ B4=-17298271643
+ R25=330 
+ T={1+TOL/100} 
+ CTH=0.0031 GTH0=0.0036935 GTH1=1.717E-6 TK=273.15
.ENDS
*$
*
*
* Typenmodell für C620/470 :
* ---------------------------
.SUBCKT C620_470 1 2  PARAMS: TOL=0
X1 1 2 NTC Params: 
+ B0=-12.47828034 
+ B1=4669.029084
+ B2=-497570.8026 
+ B3=85343711.8
+ B4=-6356557636
+ R25=470 
+ T={1+TOL/100} 
+ CTH=0.0031 GTH0=0.0036935 GTH1=1.717E-6 TK=273.15
.ENDS
*$
*
*
* Typenmodell für C620/680 :
* ---------------------------
.SUBCKT C620_680 1 2  PARAMS: TOL=0
X1 1 2 NTC Params: 
+ B0=-14.7440728
+ B1=6970.658089
+ B2=-1466178.02 
+ B3=275684945
+ B4=-20100970758
+ R25=680 
+ T={1+TOL/100} 
+ CTH=0.0031 GTH0=0.0036935 GTH1=1.717E-6 TK=273.15
.ENDS
*$
*
*
* Typenmodell für C620/1k :
* ---------------------------
.SUBCKT C620_1000 1 2  PARAMS: TOL=0
X1 1 2 NTC Params: 
+ B0=-14.7440728
+ B1=6970.658089
+ B2=-1466178.02 
+ B3=275684945
+ B4=-20100970758
+ R25=1000 
+ T={1+TOL/100} 
+ CTH=0.0031 GTH0=0.0036935 GTH1=1.717E-6 TK=273.15
.ENDS
*$
*
*
* Typenmodell für C620/2.2k :
* ---------------------------
.SUBCKT C620_2200 1 2  PARAMS: TOL=0
X1 1 2 NTC Params: 
+ B0=-13.9483255930765 
+ B1=6898.07413369222 
+ B2=-1733642.600047 
+ B3=384164558.827643 
+ B4=-33012543828.423 
+ R25=2200 
+ T={1+TOL/100} 
+ CTH=0.0031 GTH0=0.0036935 GTH1=1.717E-6 TK=273.15
.ENDS
*$
*
*
* Typenmodell für C620/4.7k :
* ---------------------------
.SUBCKT C620_4700 1 2  PARAMS: TOL=0
X1 1 2 NTC Params: 
+ B0=-15.5627602881962 
+ B1=7823.68874357333 
+ B2=-1945000.55419764 
+ B3=412842066.511181 
+ B4=-34574852941.9769 
+ R25=4700 
+ T={1+TOL/100} 
+ CTH=0.0031 GTH0=0.0036935 GTH1=1.717E-6 TK=273.15
.ENDS
*$
*
*
* Typenmodell für C620/10k :
* --------------------------
.SUBCKT C620_10000 1 2  PARAMS: TOL=0
X1 1 2 NTC Params: 
+ B0=-13.8712479437673 
+ B1=4659.14340838048 
+ B2=-165829.733275238 
+ B3=3843618.13628143 
+ B4=-280445179.724124 
+ R25=10000 
+ T={1+TOL/100} 
+ CTH=0.0031 GTH0=0.0036935 GTH1=1.717E-6 TK=273.15
.ENDS
*$
*
*
* Typenmodell für C620/22k :
* --------------------------
.SUBCKT C620_22000 1 2  PARAMS: TOL=0
X1 1 2 NTC Params: 
+ B0=-14.4184182732542 
+ B1=4699.05949699328 
+ B2=-127103.042753613 
+ B3=4999919.20330329 
+ B4=-799502544.166604 
+ R25=22000 
+ T={1+TOL/100} 
+ CTH=0.0031 GTH0=0.0036935 GTH1=1.717E-6 TK=273.15
.ENDS
*$
*
*
* Typenmodell für C620/47k :
* --------------------------
.SUBCKT C620_47000 1 2  PARAMS: TOL=0
X1 1 2 NTC Params: 
+ B0=-14.924815306 
+ B1=4762.7449961 
+ B2=-38774.470032 
+ B3=-19600171.156 
+ B4=997318273 
+ R25=47000 
+ T={1+TOL/100} 
+ CTH=0.0031 GTH0=0.0036935 GTH1=1.717E-6 TK=273.15
.ENDS
*$
*
*
* Typenmodell für C620/100k :
* ---------------------------
.SUBCKT C620_100000 1 2  PARAMS: TOL=0
X1 1 2 NTC Params: 
+ B0=-14.0953897242424 
+ B1=3082.962070953 
+ B2=1008750.730846 
+ B3=-279098232.76 
+ B4=23226481092.29 
+ R25=100000 
+ T={1+TOL/100} 
+ CTH=0.0031 GTH0=0.0036935 GTH1=1.717E-6 TK=273.15
.ENDS
*$
*
*
* Typenmodell für C620/220k :
* ---------------------------
.SUBCKT C620_220000 1 2  PARAMS: TOL=0
X1 1 2 NTC Params: 
+ B0=-18.3241879607272 
+ B1=8508.04977392148 
+ B2=-1754860.38451858 
+ B3=346834873.031206 
+ B4=-28111094462.9847 
+ R25=220000 
+ T={1+TOL/100} 
+ CTH=0.0031 GTH0=0.0036935 GTH1=1.717E-6 TK=273.15
.ENDS
*$
*
*
* Typenmodell für C621/2.2k :
* ---------------------------
.SUBCKT C621_2200 1 2  PARAMS: TOL=0
X1 1 2 NTC Params: 
+ B0=-12.2742891127253 
+ B1=4889.28354239859 
+ B2=-607237.777096104 
+ B3=94723102.6431878 
+ B4=-6853780568.70258 
+ R25=2200 
+ T={1+TOL/100} 
+ CTH=0.0054 GTH0=0.0048762 GTH1=3.102E-6 TK=273.15
.ENDS
*$
*
*
* Typenmodell für C621/3.3k :
* ---------------------------
.SUBCKT C621_3300 1 2  PARAMS: TOL=0
X1 1 2 NTC Params: 
+ B0=-9.83085430743211 
+ B1=7716.66739328665 
+ B2=-1419289.76278818 
+ B3=216177153.122501 
+ B4=-14030842059.0076 
+ R25=3300 
+ T={1+TOL/100} 
+ CTH=0.0054 GTH0=0.0048762 GTH1=3.102E-6 TK=273.15
.ENDS
*$
*
*
* Typenmodell für C621/4.7k :
* ---------------------------
.SUBCKT C621_4700 1 2  PARAMS: TOL=0
X1 1 2 NTC Params: 
+ B0=-9.83085430743211 
+ B1=7716.66739328665 
+ B2=-1419289.76278818 
+ B3=216177153.122501 
+ B4=-14030842059.0076 
+ R25=4700 
+ T={1+TOL/100} 
+ CTH=0.0054 GTH0=0.0048762 GTH1=3.102E-6 TK=273.15
.ENDS
*$
*
*
* Typenmodell für C621/10k :
* --------------------------
.SUBCKT C621_10000 1 2  PARAMS: TOL=0
X1 1 2 NTC Params: 
+ B0=-11.9847664230072 
+ B1=3069.94526980822 
+ B2=418296.198088036 
+ B3=-102412371.979498 
+ B4=6690146322.502 
+ R25=10000 
+ T={1+TOL/100} 
+ CTH=0.0054 GTH0=0.0048762 GTH1=3.102E-6 TK=273.15
.ENDS
*$
*
*
* Typenmodell für C621/15k :
* --------------------------
.SUBCKT C621_15000 1 2  PARAMS: TOL=0
X1 1 2 NTC Params: 
+ B0=-13.259578306489 
+ B1=4661.90110754562 
+ B2=-361729.025725119 
+ B3=69407497.3353788 
+ B4=-7291623710.76263 
+ R25=15000 
+ T={1+TOL/100} 
+ CTH=0.0054 GTH0=0.0048762 GTH1=3.102E-6 TK=273.15
.ENDS
*$
*
*
* Typenmodell für C621/22k :
* --------------------------
.SUBCKT C621_22000 1 2  PARAMS: TOL=0
X1 1 2 NTC Params: 
+ B0=-13.259578306489 
+ B1=4661.90110754562 
+ B2=-361729.025725119 
+ B3=69407497.3353788 
+ B4=-7291623710.76263 
+ R25=22000 
+ T={1+TOL/100} 
+ CTH=0.0054 GTH0=0.0048762 GTH1=3.102E-6 TK=273.15
.ENDS
*$
*
*
* Typenmodell für C621/33k :
* --------------------------
.SUBCKT C621_33000 1 2  PARAMS: TOL=0
X1 1 2 NTC Params: 
+ B0=-14.4184182732542 
+ B1=4699.05949699328 
+ B2=-127103.042753613 
+ B3=4999919.20330329 
+ B4=-799502544.166604 
+ R25=33000 
+ T={1+TOL/100} 
+ CTH=0.0054 GTH0=0.0048762 GTH1=3.102E-6 TK=273.15
.ENDS
*$
*
*
* Typenmodell für C621/47k :
* --------------------------
.SUBCKT C621_47000 1 2  PARAMS: TOL=0
X1 1 2 NTC Params: 
+ B0=-16.1431695445133 
+ B1=7091.52492551577 
+ B2=-1286728.55012098 
+ B3=246295702.783567 
+ B4=-19425103001.548 
+ R25=47000 
+ T={1+TOL/100} 
+ CTH=0.0054 GTH0=0.0048762 GTH1=3.102E-6 TK=273.15
.ENDS
*$
*
*
* Typenmodell für C621/68k :
* --------------------------
.SUBCKT C621_68000 1 2  PARAMS: TOL=0
X1 1 2 NTC Params: 
+ B0=-16.1431695445133 
+ B1=7091.52492551577 
+ B2=-1286728.55012098 
+ B3=246295702.783567 
+ B4=-19425103001.548 
+ R25=68000 
+ T={1+TOL/100} 
+ CTH=0.0054 GTH0=0.0048762 GTH1=3.102E-6 TK=273.15
.ENDS
*$
*
*
* Typenmodell für C621/100k :
* ---------------------------
.SUBCKT C621_100000 1 2  PARAMS: TOL=0
X1 1 2 NTC Params: 
+ B0=-16.9094702670379 
+ B1=7631.63163923026 
+ B2=-1390262.2275485 
+ B3=244841120.24783 
+ B4=-18053592436.9151 
+ R25=100000 
+ T={1+TOL/100} 
+ CTH=0.0054 GTH0=0.0048762 GTH1=3.102E-6 TK=273.15
.ENDS
*$
*
*
* Typenmodell für C621/150k :
* ---------------------------
.SUBCKT C621_150000 1 2  PARAMS: TOL=0
X1 1 2 NTC Params: 
+ B0=-14.0953897242424 
+ B1=3082.962070953 
+ B2=1008750.730846 
+ B3=-279098232.76 
+ B4=23226481092.29 
+ R25=150000 
+ T={1+TOL/100} 
+ CTH=0.0054 GTH0=0.0048762 GTH1=3.102E-6 TK=273.15
.ENDS
*$
*
*
* Typenmodell für C621/220k :
* ---------------------------
.SUBCKT C621_220000 1 2  PARAMS: TOL=0
X1 1 2 NTC Params: 
+ B0=-16.6369353109761 
+ B1=6664.46454504816 
+ B2=-897453.062841583 
+ B3=157049849.343104 
+ B4=-12217691539.6873 
+ R25=220000 
+ T={1+TOL/100} 
+ CTH=0.0054 GTH0=0.0048762 GTH1=3.102E-6 TK=273.15
.ENDS
*$
*
*
* Typenmodell für C621/330k :
* ---------------------------
.SUBCKT C621_330000 1 2  PARAMS: TOL=0
X1 1 2 NTC Params: 
+ B0=-21.1076688988866 
+ B1=10708.4003204327 
+ B2=-2230387.50369866 
+ B3=355497599.597809 
+ B4=-24753589952.7545 
+ R25=330000 
+ T={1+TOL/100} 
+ CTH=0.0054 GTH0=0.0048762 GTH1=3.102E-6 TK=273.15
.ENDS
*$
*
*
* Typenmodell für C621/470k :
* ---------------------------
.SUBCKT C621_470000 1 2  PARAMS: TOL=0
X1 1 2 NTC Params: 
+ B0=-21.1076688988866 
+ B1=10708.4003204327 
+ B2=-2230387.50369866 
+ B3=355497599.597809 
+ B4=-24753589952.7545 
+ R25=470000 
+ T={1+TOL/100} 
+ CTH=0.0054 GTH0=0.0048762 GTH1=3.102E-6 TK=273.15
.ENDS
*$
*
*
* Typenmodell für G540/5k :
* ---------------------------
.SUBCKT G540_5000 1 2  PARAMS: TOL=0
X1 1 2 NTC Params: 
+ B0=-12.1926328327162
+ B1=3310.09470509453
+ B2=348772.423001096 
+ B3=-99802100.8683769 
+ B4=7369761549.625
+ R25=5000 
+ T={1+TOL/100} 
+ CTH=0.00119 GTH0=0.00039423 GTH1=5.385E-7 TK=273.15
.ENDS
*$
*
*
* Typenmodell für G540/10k :
* ---------------------------
.SUBCKT G540_10000 1 2  PARAMS: TOL=0
X1 1 2 NTC Params: 
+ B0=-12.196347610336
+ B1=3314.77676511941
+ B2=346608.502189249
+ B3=-99367498.213384
+ B4=7337806094.5
+ R25=10000 
+ T={1+TOL/100} 
+ CTH=0.00119 GTH0=0.00039423 GTH1=5.385E-7 TK=273.15
.ENDS
*$
*
*
* Typenmodell für G540/20k :
* ---------------------------
.SUBCKT G540_20000 1 2  PARAMS: TOL=0
X1 1 2 NTC Params: 
+ B0=-14.5219447408392
+ B1=4716.03085449291
+ B2=-107621.327609108
+ B3=-2825772.28242217
+ B4=170656204.625
+ R25=20000 
+ T={1+TOL/100} 
+ CTH=0.00119 GTH0=0.00039423 GTH1=5.385E-7 TK=273.15
.ENDS
*$
*
*
* Typenmodell für G540/30k :

* ---------------------------
.SUBCKT G540_30000 1 2  PARAMS: TOL=0
X1 1 2 NTC Params: 
+ B0=-14.5219447408392
+ B1=4716.03085449291
+ B2=-107621.327609108
+ B3=-2825772.28242217
+ B4=170656204.625
+ R25=30000 
+ T={1+TOL/100} 
+ CTH=0.00119 GTH0=0.00039423 GTH1=5.385E-7 TK=273.15
.ENDS
*$
*
*
* Typenmodell für G540/50k :
* ---------------------------
.SUBCKT G540_50000 1 2  PARAMS: TOL=0
X1 1 2 NTC Params: 
+ B0=-14.5201639336446
+ B1=4714.11097585284
+ B2=-106870.401069379
+ B3=-2950927.2755853
+ B4=178030370.4375
+ R25=50000 
+ T={1+TOL/100} 
+ CTH=0.00119 GTH0=0.00039423 GTH1=5.385E-7 TK=273.15
.ENDS
*$
*
*
* Typenmodell für G540/100k :
* ---------------------------
.SUBCKT G540_100000 1 2  PARAMS: TOL=0
X1 1 2 NTC Params: 
+ B0=-15.1850639549806
+ B1=5028.01728078205
+ B2=-132985.382961332
+ B3=-4690159.00272272
+ B4=-47539587.90625
+ R25=100000 
+ T={1+TOL/100} 
+ CTH=0.00119 GTH0=0.00039423 GTH1=5.385E-7 TK=273.15
.ENDS
*$
*
*
* Typenmodell für G540/230k :
* ---------------------------
.SUBCKT G540_230000 1 2  PARAMS: TOL=0
X1 1 2 NTC Params: 
+ B0=-16.3240976497448
+ B1=5604.88387992357
+ B2=-196155.39568985
+ B3=-14025173.5652326
+ B4=2062757542.84375
+ R25=230000 
+ T={1+TOL/100} 
+ CTH=0.00119 GTH0=0.00039423 GTH1=5.385E-7 TK=273.15
.ENDS
*$
*
*
* Typenmodell für G540/1400k :
* ---------------------------
.SUBCKT G540_1400000 1 2  PARAMS: TOL=0
X1 1 2 NTC Params: 
+ B0=-18.0488609348225
+ B1=6687.48103157502
+ B2=-517669.900843622
+ B3=43978684.8254737
+ B4=-1714112280.875
+ R25=1400000 
+ T={1+TOL/100} 
+ CTH=0.00119 GTH0=0.00039423 GTH1=5.385E-7 TK=273.15
.ENDS
*$
*
*
* Typenmodell für G550/2k :
* ---------------------------
.SUBCKT G550_2000 1 2  PARAMS: TOL=0
X1 1 2 NTC Params: 
+ B0= -11.4535185110708
+ B1= 2663.50612322667
+ B2= 584328.877140223
+ B3= -141069268.194738
+ B4= 10030545011
+ T={1+TOL/100} 
+ CTH=0.00427 GTH0=0.0006150 GTH1=1.000E-6 TK=273.15
.ENDS
*$
*
*
* Typenmodell für G550/5k :
* ---------------------------
.SUBCKT G550_5000 1 2  PARAMS: TOL=0
X1 1 2 NTC Params: 
+ B0=-12.1926328327162
+ B1=3310.09470509453
+ B2=348772.423001096 
+ B3=-99802100.8683769 
+ B4=7369761549.625
+ R25=5000 
+ T={1+TOL/100} 
+ CTH=0.00427 GTH0=0.0006150 GTH1=1.000E-6 TK=273.15
.ENDS
*$
*
*
* Typenmodell für G550/10k :
* ---------------------------
.SUBCKT G550_10000 1 2  PARAMS: TOL=0
X1 1 2 NTC Params: 
+ B0=-12.196347610336
+ B1=3314.77676511941
+ B2=346608.502189249
+ B3=-99367498.213384
+ B4=7337806094.5

+ R25=10000 
+ T={1+TOL/100} 
+ CTH=0.00427 GTH0=0.0006150 GTH1=1.000E-6 TK=273.15
.ENDS
*$
*
*
* Typenmodell für G550/20k :
* ---------------------------
.SUBCKT G550_20000 1 2  PARAMS: TOL=0
X1 1 2 NTC Params: 
+ B0=-14.5219447408392
+ B1=4716.03085449291
+ B2=-107621.327609108
+ B3=-2825772.28242217
+ B4=170656204.625
+ R25=20000 
+ T={1+TOL/100} 
+ CTH=0.00427 GTH0=0.0006150 GTH1=1.000E-6 TK=273.15
.ENDS
*$
*
*
* Typenmodell für G550/30k :
* ---------------------------
.SUBCKT G550_30000 1 2  PARAMS: TOL=0
X1 1 2 NTC Params: 
+ B0=-14.5219447408392
+ B1=4716.03085449291
+ B2=-107621.327609108
+ B3=-2825772.28242217
+ B4=170656204.625
+ R25=30000 
+ T={1+TOL/100} 
+ CTH=0.00427 GTH0=0.0006150 GTH1=1.000E-6 TK=273.15
.ENDS
*$
*
*
* Typenmodell für G550/50k :
* ---------------------------
.SUBCKT G550_50000 1 2  PARAMS: TOL=0
X1 1 2 NTC Params: 
+ B0=-14.5201639336446
+ B1=4714.11097585284
+ B2=-106870.401069379
+ B3=-2950927.2755853
+ B4=178030370.4375
+ R25=50000 
+ T={1+TOL/100} 
+ CTH=0.00427 GTH0=0.0006150 GTH1=1.000E-6 TK=273.15
.ENDS
*$
*
*
* Typenmodell für G550/100k :
* ---------------------------
.SUBCKT G550_100000 1 2  PARAMS: TOL=0
X1 1 2 NTC Params: 
+ B0=-15.1850639549806
+ B1=5028.01728078205
+ B2=-132985.382961332
+ B3=-4690159.00272272
+ B4=-47539587.90625
+ R25=100000 
+ T={1+TOL/100} 
+ CTH=0.00427 GTH0=0.0006150 GTH1=1.000E-6 TK=273.15
.ENDS
*$
*
*
* Typenmodell für G550/230k :
* ---------------------------
.SUBCKT G550_230000 1 2  PARAMS: TOL=0
X1 1 2 NTC Params: 
+ B0=-16.3240976497448
+ B1=5604.88387992357
+ B2=-196155.39568985
+ B3=-14025173.5652326
+ B4=2062757542.84375
+ R25=230000 
+ T={1+TOL/100} 
+ CTH=0.00427 GTH0=0.0006150 GTH1=1.000E-6 TK=273.15
.ENDS
*$
*
*
* Typenmodell für G550/1400k :
* ---------------------------
.SUBCKT G550_1400000 1 2  PARAMS: TOL=0
X1 1 2 NTC Params: 
+ B0=-18.0488609348225
+ B1=6687.48103157502
+ B2=-517669.900843622
+ B3=43978684.8254737
+ B4=-1714112280.875
+ R25=1400000 
+ T={1+TOL/100} 
+ CTH=0.00427 GTH0=0.0006150 GTH1=1.000E-6 TK=273.15
.ENDS
*$
*
*
* Typenmodell für G560/2k :
* ---------------------------
.SUBCKT G560_2000 1 2  PARAMS: TOL=0
X1 1 2 NTC Params: 
+ B0= -11.4535185110708
+ B1= 2663.50612322667
+ B2= 584328.877140223
+ B3= -141069268.194738
+ B4= 10030545011
+ R25=2000 
+ T={1+TOL/100} 
+ CTH=0.0204 GTH0=0.0011373 GTH1=1.885E-6 TK=273.15
.ENDS
*$
*
*
* Typenmodell für G560/5k :
* ---------------------------
.SUBCKT G560_5000 1 2  PARAMS: TOL=0
X1 1 2 NTC Params: 
+ B0=-12.1926328327162
+ B1=3310.09470509453
+ B2=348772.423001096 
+ B3=-99802100.8683769 
+ B4=7369761549.625
+ R25=5000 
+ T={1+TOL/100} 
+ CTH=0.0204 GTH0=0.0011373 GTH1=1.885E-6 TK=273.15
.ENDS
*$
*

*
* Typenmodell für G560/10k :
* ---------------------------
.SUBCKT G560_10000 1 2  PARAMS: TOL=0
X1 1 2 NTC Params: 
+ B0=-12.196347610336
+ B1=3314.77676511941
+ B2=346608.502189249
+ B3=-99367498.213384
+ B4=7337806094.5
+ R25=10000 
+ T={1+TOL/100} 
+ CTH=0.0204 GTH0=0.0011373 GTH1=1.885E-6 TK=273.15
.ENDS
*$
*
*
* Typenmodell für G560/20k :
* ---------------------------
.SUBCKT G560_20000 1 2  PARAMS: TOL=0
X1 1 2 NTC Params: 
+ B0=-14.5219447408392
+ B1=4716.03085449291
+ B2=-107621.327609108
+ B3=-2825772.28242217
+ B4=170656204.625
+ R25=20000 
+ T={1+TOL/100} 
+ CTH=0.0204 GTH0=0.0011373 GTH1=1.885E-6 TK=273.15
.ENDS
*$
*
*
* Typenmodell für G560/30k :
* ---------------------------
.SUBCKT G560_30000 1 2  PARAMS: TOL=0
X1 1 2 NTC Params: 
+ B0=-14.5219447408392
+ B1=4716.03085449291
+ B2=-107621.327609108
+ B3=-2825772.28242217
+ B4=170656204.625
+ R25=30000 
+ T={1+TOL/100} 
+ CTH=0.0204 GTH0=0.0011373 GTH1=1.885E-6 TK=273.15
.ENDS
*$
*
*
* Typenmodell für G560/50k :
* ---------------------------
.SUBCKT G560_50000 1 2  PARAMS: TOL=0
X1 1 2 NTC Params: 
+ B0=-14.5201639336446
+ B1=4714.11097585284
+ B2=-106870.401069379
+ B3=-2950927.2755853
+ B4=178030370.4375
+ R25=50000 
+ T={1+TOL/100} 
+ CTH=0.0204 GTH0=0.0011373 GTH1=1.885E-6 TK=273.15
.ENDS
*$
*
*
* Typenmodell für G560/100k :
* ---------------------------
.SUBCKT G560_100000 1 2  PARAMS: TOL=0
X1 1 2 NTC Params: 
+ B0=-15.1850639549806
+ B1=5028.01728078205
+ B2=-132985.382961332
+ B3=-4690159.00272272
+ B4=-47539587.90625
+ R25=100000 
+ T={1+TOL/100} 
+ CTH=0.0204 GTH0=0.0011373 GTH1=1.885E-6 TK=273.15
.ENDS
*$
*
*
* Typenmodell für G560/230k :
* ---------------------------
.SUBCKT G560_230000 1 2  PARAMS: TOL=0
X1 1 2 NTC Params: 
+ B0=-16.3240976497448
+ B1=5604.88387992357
+ B2=-196155.39568985
+ B3=-14025173.5652326
+ B4=2062757542.84375
+ R25=230000 
+ T={1+TOL/100} 
+ CTH=0.0204 GTH0=0.0011373 GTH1=1.885E-6 TK=273.15
.ENDS
*$
*
*
* Typenmodell für G560/1400k :
* ---------------------------
.SUBCKT G560_1400000 1 2  PARAMS: TOL=0
X1 1 2 NTC Params: 
+ B0=-18.0488609348225
+ B1=6687.48103157502
+ B2=-517669.900843622
+ B3=43978684.8254737
+ B4=-1714112280.875
+ R25=1400000 
+ T={1+TOL/100} 
+ CTH=0.0204 GTH0=0.0011373 GTH1=1.885E-6 TK=273.15
.ENDS
*$
*
*
* Typenmodell für G660/2.2k :
* ---------------------------
.SUBCKT G660_2200 1 2  PARAMS: TOL=0
X1 1 2 NTC Params: 
+ B0= -11.4535185110708
+ B1= 2663.50612322667
+ B2= 584328.877140223
+ B3= -141069268.194738
+ B4= 10030545011
+ R25=2200 
+ T={1+TOL/100} 
+ CTH=0.0279 GTH0=0.0012544 GTH1=2.154E-6 TK=273.15
.ENDS
*$
*
*
* Typenmodell für G660/5.4k :
* ---------------------------
.SUBCKT G660_5400 1 2  PARAMS: TOL=0
X1 1 2 NTC Params: 
+ B0=-12.1926328327162
+ B1=3310.09470509453
+ B2=348772.423001096 
+ B3=-99802100.8683769 
+ B4=7369761549.625
+ R25=5400 
+ T={1+TOL/100} 
+ CTH=0.0279 GTH0=0.0012544 GTH1=2.154E-6 TK=273.15
.ENDS
*$
*
*
* Typenmodell für G660/10.7k :
* ---------------------------
.SUBCKT G660_10700 1 2  PARAMS: TOL=0
X1 1 2 NTC Params: 
+ B0=-12.196347610336
+ B1=3314.77676511941
+ B2=346608.502189249
+ B3=-99367498.213384
+ B4=7337806094.5
+ R25=10700 
+ T={1+TOL/100} 
+ CTH=0.0279 GTH0=0.0012544 GTH1=2.154E-6 TK=273.15
.ENDS
*$
*
*
* Typenmodell für G660/49.1k :
* ---------------------------
.SUBCKT G660_49100 1 2  PARAMS: TOL=0
X1 1 2 NTC Params: 
+ B0=-14.5201639336446
+ B1=4714.11097585284
+ B2=-106870.401069379
+ B3=-2950927.2755853
+ B4=178030370.4375
+ R25=49100 
+ T={1+TOL/100} 
+ CTH=0.0279 GTH0=0.0012544 GTH1=2.154E-6 TK=273.15
.ENDS
*$
*
*
* Typenmodell für G660/98.6k :
* ---------------------------
.SUBCKT G660_98600 1 2  PARAMS: TOL=0
X1 1 2 NTC Params: 
+ B0=-15.1850639549806
+ B1=5028.01728078205
+ B2=-132985.382961332
+ B3=-4690159.00272272
+ B4=-47539587.90625
+ R25=98600
+ T={1+TOL/100} 
+ CTH=0.0279 GTH0=0.0012544 GTH1=2.154E-6 TK=273.15
.ENDS
*$
*
*
* Typenmodell für G660/231.4k :
* ---------------------------
.SUBCKT G660_231400 1 2  PARAMS: TOL=0
X1 1 2 NTC Params: 
+ B0=-16.3240976497448
+ B1=5604.88387992357
+ B2=-196155.39568985
+ B3=-14025173.5652326
+ B4=2062757542.84375
+ R25=231400
+ T={1+TOL/100} 
+ CTH=0.0279 GTH0=0.0012544 GTH1=2.154E-6 TK=273.15
.ENDS
*$
*
*
* Typenmodell für G660/1388.1k :
* ---------------------------
.SUBCKT G660_1388100 1 2  PARAMS: TOL=0
X1 1 2 NTC Params: 
+ B0=-18.0488609348225
+ B1=6687.48103157502
+ B2=-517669.900843622
+ B3=43978684.8254737
+ B4=-1714112280.875
+ R25=1388100
+ T={1+TOL/100} 
+ CTH=0.0279 GTH0=0.0012544 GTH1=2.154E-6 TK=273.15
.ENDS
*$
*
*
* Typenmodell für G750/3800k :
* ---------------------------
.SUBCKT G750_3800000 1 2  PARAMS: TOL=0
X1 1 2 NTC Params: 
+ B0=-18.4037283439436
+ B1=6120.83265598932
+ B2=-26328.7222501146
+ B3=-69413368.602228
+ B4=6243718355.5625
+ R25=3643174 
+ T={1+TOL/100} 
+ CTH=0.0272 GTH0=0.0011433 GTH1=1.733E-6 TK=273.15
.ENDS 
*$
*
*
* Typenmodell für K227/33k :
* ---------------------------
.SUBCKT K227_33000 1 2  PARAMS: TOL=0
X1 1 2 NTC Params: 
+ B0=-18.3241879607272 
+ B1=8508.04977392148 
+ B2=-1754860.38451858 
+ B3=346834873.031206 
+ B4=-28111094462.9847
+ R25=32762
+ T={1+TOL/100} 
+ CTH=0.15 GTH0=0.0111403 GTH1=7.772E-6 TK=273.15
.ENDS
*$
*
*
* Typenmodell für K276/11.982k :
* ---------------------------
.SUBCKT K276_11982 1 2  PARAMS: TOL=0
X1 1 2 NTC Params: 
+ B0=-15.33722545
+ B1=6191.227533
+ B2=-797780.4443 
+ B3=127545978.6
+ B4=-9996368696 
+ R25=11982 
+ T={1+TOL/100} 
+ CTH=1.36 GTH0=0.0098367 GTH1=1.858E-6 TK=273.15
.ENDS
*$
*
*
* Typenmodell für K500/10k :
* ---------------------------
.SUBCKT K500_10000 1 2  PARAMS: TOL=0
X1 1 2 NTC Params: 
+ B0=-14.0083695840113 
+ B1=4194.13559855903 
+ B2=92845.0754774119 
+ B3=-35374627.7053627 
+ B4=1827493864.83408
+ R25=10000 
+ T={1+TOL/100} 
+ CTH=0.1797 GTH0=0.0036733 GTH1=6.667E-6 TK=273.15
.ENDS
*$
*
*
* Typenmodell für K501/6.8k :
* ---------------------------
.SUBCKT K501_6800 1 2  PARAMS: TOL=0
X1 1 2 NTC Params: 
+ B0=-14.0083695840113 
+ B1=4194.13559855903 
+ B2=92845.0754774119 
+ B3=-35374627.7053627 
+ B4=1827493864.83408
+ R25=6800 
+ T={1+TOL/100} 
+ CTH=0.1797 GTH0=0.0036733 GTH1=6.667E-6 TK=273.15
.ENDS
*$
*
*
* Typenmodell für K164/15 :
* -------------------------
.SUBCKT K164_15 1 2  PARAMS: TOL=0
X1 1 2 NTC Params: 
+ B0=-9.64383571406453 
+ B1=2602.24224015408 
+ B2=191966.391851936 
+ B3=-40484994.1229511 
+ B4=2243201261.96206 
+ R25=15 
+ T={1+TOL/100} 
+ CTH=0.136 GTH0=0.0074837 GTH1=4.701E-6 TK=273.15
.ENDS
*$
*
*
* Typenmodell für K164/22 :
* -------------------------
.SUBCKT K164_22 1 2  PARAMS: TOL=0
X1 1 2 NTC Params: 
+ B0=-9.64383571406453 
+ B1=2602.24224015408 
+ B2=191966.391851936 
+ B3=-40484994.1229511 
+ B4=2243201261.96206 
+ R25=22 
+ T={1+TOL/100} 
+ CTH=0.136 GTH0=0.0074837 GTH1=4.701E-6 TK=273.15
.ENDS
*$
*
*
* Typenmodell für K164/33 :
* -------------------------
.SUBCKT K164_33 1 2  PARAMS: TOL=0
X1 1 2 NTC Params: 
+ B0=-9.64383571406453 
+ B1=2602.24224015408 
+ B2=191966.391851936 
+ B3=-40484994.1229511 
+ B4=2243201261.96206 
+ R25=33 
+ T={1+TOL/100} 
+ CTH=0.136 GTH0=0.0074837 GTH1=4.701E-6 TK=273.15
.ENDS
*$
*
*
* Typenmodell für K164/47 :
* -------------------------
.SUBCKT K164_47 1 2  PARAMS: TOL=0
X1 1 2 NTC Params: 
+ B0=-12.6937692504079 
+ B1=5498.56929422705 
+ B2=-850214.999414187 
+ B3=125785600.618086 
+ B4=-7349163147.77757 
+ R25=47 
+ T={1+TOL/100} 
+ CTH=0.136 GTH0=0.0074837 GTH1=4.701E-6 TK=273.15
.ENDS
*$
*
*
* Typenmodell für K164/68 :
* -------------------------
.SUBCKT K164_68 1 2  PARAMS: TOL=0
X1 1 2 NTC Params: 
+ B0=-11.1633152783721 
+ B1=3769.92810619091 
+ B2=-185996.880918542 
+ B3=23253762.9866783 
+ B4=-2075249242.88459 
+ R25=68 
+ T={1+TOL/100} 
+ CTH=0.136 GTH0=0.0074837 GTH1=4.701E-6 TK=273.15
.ENDS
*$
*
*
* Typenmodell für K164/100 :
* --------------------------
.SUBCKT K164_100 1 2  PARAMS: TOL=0
X1 1 2 NTC Params: 
+ B0=-11.5308432841836 
+ B1=3799.92010884369 
+ B2=-145739.497346467 
+ B3=16270237.2871899 
+ B4=-1480016638.82789 
+ R25=100 
+ T={1+TOL/100} 
+ CTH=0.136 GTH0=0.0074837 GTH1=4.701E-6 TK=273.15
.ENDS
*$
*
*
* Typenmodell für K164/150 :
* --------------------------
.SUBCKT K164_150 1 2  PARAMS: TOL=0
X1 1 2 NTC Params: 
+ B0=-11.5308432841836 
+ B1=3799.92010884369 
+ B2=-145739.497346467 
+ B3=16270237.2871899 
+ B4=-1480016638.82789 
+ R25=150 
+ T={1+TOL/100} 
+ CTH=0.136 GTH0=0.0074837 GTH1=4.701E-6 TK=273.15
.ENDS
*$
*
*
* Typenmodell für K164/220 :
* --------------------------
.SUBCKT K164_220 1 2  PARAMS: TOL=0
X1 1 2 NTC Params: 
+ B0=-11.5308432841836 
+ B1=3799.92010884369 
+ B2=-145739.497346467 
+ B3=16270237.2871899 
+ B4=-1480016638.82789 
+ R25=220 
+ T={1+TOL/100} 

+ CTH=0.136 GTH0=0.0074837 GTH1=4.701E-6 TK=273.15
.ENDS
*$
*
*
* Typenmodell für K164/330 :
* --------------------------
.SUBCKT K164_330 1 2  PARAMS: TOL=0
X1 1 2 NTC Params: 
+ B0=-11.5307507445051 
+ B1=2876.45244649406 
+ B2=427703.422789649 
+ B3=-98673920.9714302 
+ B4=6279823094.96873 
+ R25=330 
+ T={1+TOL/100} 
+ CTH=0.136 GTH0=0.0074837 GTH1=4.701E-6 TK=273.15
.ENDS
*$
*
*
* Typenmodell für K164/470 :
* --------------------------
.SUBCKT K164_470 1 2  PARAMS: TOL=0
X1 1 2 NTC Params: 
+ B0=-11.5307507445051 
+ B1=2876.45244649406 
+ B2=427703.422789649 
+ B3=-98673920.9714302 
+ B4=6279823094.96873 
+ R25=470 
+ T={1+TOL/100} 
+ CTH=0.136 GTH0=0.0074837 GTH1=4.701E-6 TK=273.15
.ENDS
*$
*
*
* Typenmodell für K164/680 :
* --------------------------
.SUBCKT K164_680 1 2  PARAMS: TOL=0
X1 1 2 NTC Params: 
+ B0=-15.5627602881962 
+ B1=7823.68874357333 
+ B2=-1945000.55419764 
+ B3=412842066.511181 
+ B4=-34574852941.9769 
+ R25=680 
+ T={1+TOL/100} 
+ CTH=0.136 GTH0=0.0074837 GTH1=4.701E-6 TK=273.15
.ENDS
*$
*
*
* Typenmodell für K164/1k :
* -------------------------
.SUBCKT K164_1000 1 2  PARAMS: TOL=0
X1 1 2 NTC Params: 
+ B0=-13.8712479437673 
+ B1=4659.14340838048 
+ B2=-165829.733275238 
+ B3=3843618.13628143 
+ B4=-280445179.724124 
+ R25=1000 
+ T={1+TOL/100} 
+ CTH=0.136 GTH0=0.0074837 GTH1=4.701E-6 TK=273.15
.ENDS
*$
*
*
* Typenmodell für K164/1.5k :
* ---------------------------
.SUBCKT K164_1500 1 2  PARAMS: TOL=0
X1 1 2 NTC Params: 
+ B0=-13.7532708259955 
+ B1=3871.39800422133 
+ B2=302024.789602715 
+ B3=-90049384.280685 
+ B4=6073197037.92074 
+ R25=1500 
+ T={1+TOL/100} 
+ CTH=0.136 GTH0=0.0074837 GTH1=4.701E-6 TK=273.15
.ENDS
*$
*
*
* Typenmodell für K164/2.2k :
* ---------------------------
.SUBCKT K164_2200 1 2  PARAMS: TOL=0
X1 1 2 NTC Params: 
+ B0=-13.7532708259955 
+ B1=3871.39800422133 
+ B2=302024.789602715 
+ B3=-90049384.280685 
+ B4=6073197037.92074 
+ R25=2200 
+ T={1+TOL/100} 
+ CTH=0.136 GTH0=0.0074837 GTH1=4.701E-6 TK=273.15
.ENDS
*$
*
*
* Typenmodell für K164/3.3k :
* ---------------------------
.SUBCKT K164_3300 1 2  PARAMS: TOL=0
X1 1 2 NTC Params: 
+ B0=-14.9488427101884 
+ B1=5178.35645837075 
+ B2=-255215.692838918 
+ B3=14518126.7679008 
+ B4=-783705135.544276 
+ R25=3300 
+ T={1+TOL/100} 
+ CTH=0.136 GTH0=0.0074837 GTH1=4.701E-6 TK=273.15
.ENDS
*$
*
*
* Typenmodell für K164/4.7k :
* ---------------------------
.SUBCKT K164_4700 1 2  PARAMS: TOL=0
X1 1 2 NTC Params: 
+ B0=-14.9488427101884 
+ B1=5178.35645837075 
+ B2=-255215.692838918 
+ B3=14518126.7679008 
+ B4=-783705135.544276 
+ R25=4700 
+ T={1+TOL/100} 
+ CTH=0.136 GTH0=0.0074837 GTH1=4.701E-6 TK=273.15
.ENDS
*$
*
*
* Typenmodell für K164/6.8k :
* ---------------------------
.SUBCKT K164_6800 1 2  PARAMS: TOL=0
X1 1 2 NTC Params: 
+ B0=-16.6369353109761 
+ B1=6664.46454504816 
+ B2=-897453.062841583 
+ B3=157049849.343104 
+ B4=-12217691539.6873 
+ R25=6800 
+ T={1+TOL/100} 
+ CTH=0.136 GTH0=0.0074837 GTH1=4.701E-6 TK=273.15
.ENDS
*$
*
*
* Typenmodell für K164/10k :
* --------------------------
.SUBCKT K164_10000 1 2  PARAMS: TOL=0
X1 1 2 NTC Params: 
+ B0=-18.3241879607272 
+ B1=8508.04977392148 
+ B2=-1754860.38451858 
+ B3=346834873.031206 
+ B4=-28111094462.9847 
+ R25=10000 
+ T={1+TOL/100} 
+ CTH=0.136 GTH0=0.0074837 GTH1=4.701E-6 TK=273.15
.ENDS
*$
*
*
* Typenmodell für K164/15k :