* OPA111 OPERATIONAL AMPLIFIER "MACROMODEL" SUBCIRCUIT

* CREATED USING PARTS RELEASE 4.03 ON 10/12/90 AT 16:35

* REV.A

*  ------------------------------------------------------------------------ 

* |  NOTICE: THE INFORMATION PROVIDED HEREIN IS BELIEVED TO BE RELIABLE;   |

* |  HOWEVER; BURR-BROWN ASSUMES NO RESPONSIBILITY FOR INACCURACIES OR     |

* |  OMISSIONS.  BURR-BROWN ASSUMES NO RESPONSIBILITY FOR THE USE OF THIS  |

* |  INFORMATION, AND ALL USE OF SUCH INFORMATION SHALL BE ENTIRELY AT     |

* |  THE USER'S OWN RISK.  NO PATENT RIGHTS OR LICENSES TO ANY OF THE      |

* |  CIRCUITS DESCRIBED HEREIN ARE IMPLIED OR GRANTED TO ANY THIRD PARTY.  |

* |  BURR-BROWN DOES NOT AUTHORIZE OR WARRANT ANY BURR-BROWN PRODUCT FOR   |

* |  USE IN LIFE-SUPPORT DEVICES AND/OR SYSTEMS.                           |

*  ------------------------------------------------------------------------ 

*

* CONNECTIONS:   NON-INVERTING INPUT

*                | INVERTING INPUT

*                | | POSITIVE POWER SUPPLY

*                | | | NEGATIVE POWER SUPPLY

*                | | | | OUTPUT

*                | | | | |

.SUBCKT OPA111   1 2 3 4 5

*

C1   11 12 72.79E-12

C2    6  7 400.0E-12

DC    5 53 DX

DE   54  5 DX

DLP  90 91 DX

DLN  92 90 DX

DP    4  3 DX

EGND 99  0 POLY(2) (3,0) (4,0) 0 .5 .5

FB    7 99 POLY(5) VB VC VE VLP VLN 0 4.717E6 -5E6 5E6 5E6 -5E6

GA    6  0 11 12 5.027E-3

GCM   0  6 10 99 15.90E-9

ISS   3 10 DC 800.0E-6

HLIM 90  0 VLIM 1K

J1   11  2 10 JX

J2   12  1 10 JX

R2    6  9 100.0E3

RD1   4 11 198.9

RD2   4 12 198.9

RO1   8  5 25

RO2   7 99 75

RP    3  4 12.00E3

RSS  10 99 250.0E3

VB    9  0 DC 0

VC    3 53 DC 3

VE   54  4 DC 3

VLIM  7  8 DC 0

VLP  91  0 DC 40

VLN   0 92 DC 40

.MODEL DX D(IS=800.0E-18)

.MODEL JX PJF(IS=400.0E-15 BETA=15.79E-3 VTO=-1)

.ENDS
* OPA121 OPERATIONAL AMPLIFIER "MACROMODEL" SUBCIRCUIT

* CREATED USING PARTS RELEASE 4.03 ON 10/15/90 AT 14:41

* REV.A

*  ------------------------------------------------------------------------ 

* |  NOTICE: THE INFORMATION PROVIDED HEREIN IS BELIEVED TO BE RELIABLE;   |

* |  HOWEVER; BURR-BROWN ASSUMES NO RESPONSIBILITY FOR INACCURACIES OR     |

* |  OMISSIONS.  BURR-BROWN ASSUMES NO RESPONSIBILITY FOR THE USE OF THIS  |

* |  INFORMATION, AND ALL USE OF SUCH INFORMATION SHALL BE ENTIRELY AT     |

* |  THE USER'S OWN RISK.  NO PATENT RIGHTS OR LICENSES TO ANY OF THE      |

* |  CIRCUITS DESCRIBED HEREIN ARE IMPLIED OR GRANTED TO ANY THIRD PARTY.  |

* |  BURR-BROWN DOES NOT AUTHORIZE OR WARRANT ANY BURR-BROWN PRODUCT FOR   |

* |  USE IN LIFE-SUPPORT DEVICES AND/OR SYSTEMS.                           |

*  ------------------------------------------------------------------------ 

*

* CONNECTIONS:   NON-INVERTING INPUT

*                | INVERTING INPUT

*                | | POSITIVE POWER SUPPLY

*                | | | NEGATIVE POWER SUPPLY

*                | | | | OUTPUT

*                | | | | |

.SUBCKT OPA121   1 2 3 4 5

*

C1   11 12 72.79E-12

C2    6  7 400.0E-12

DC    5 53 DX

DE   54  5 DX

DLP  90 91 DX

DLN  92 90 DX

DP    4  3 DX

EGND 99  0 POLY(2) (3,0) (4,0) 0 .5 .5

FB    7 99 POLY(5) VB VC VE VLP VLN 0 2.653E6 -3E6 3E6 3E6 -3E6

GA    6  0 11 12 5.027E-3

GCM   0  6 10 99 31.72E-9

ISS   3 10 DC 800.0E-6

HLIM 90  0 VLIM 1K

J1   11  2 10 JX

J2   12  1 10 JX

R2    6  9 100.0E3

RD1   4 11 198.9

RD2   4 12 198.9

RO1   8  5 25

RO2   7 99 75

RP    3  4 12.00E3

RSS  10 99 250.0E3

VB    9  0 DC 0

VC    3 53 DC 3

VE   54  4 DC 3

VLIM  7  8 DC 0

VLP  91  0 DC 40

VLN   0 92 DC 40

.MODEL DX D(IS=800.0E-18)

.MODEL JX PJF(IS=500.0E-15 BETA=15.79E-3 VTO=-1)

.ENDS

* OPA128 OPERATIONAL AMPLIFIER "MACROMODEL" SUBCIRCUIT

* CREATED USING PARTS RELEASE 4.03 ON 10/15/90 AT 08:27

* REV.A

*

* CONNECTIONS:   NON-INVERTING INPUT

*                | INVERTING INPUT

*                | | POSITIVE POWER SUPPLY

*                | | | NEGATIVE POWER SUPPLY

*                | | | | OUTPUT

*                | | | | |

.SUBCKT OPA128   1 2 3 4 5

*

C1   11 12 2.204E-12

C2    6  7 25.00E-12

DC    5 53 DX

DE   54  5 DX

DLP  90 91 DX

DLN  92 90 DX

DP    4  3 DX

EGND 99  0 POLY(2) (3,0) (4,0) 0 .5 .5

FB    7 99 POLY(5) VB VC VE VLP VLN 0 106.6E6 -10E6 10E6 10E6 -10E6

GA    6  0 11 12 314.2E-6

GCM   0  6 10 99 395.5E-12

ISS   3 10 DC 80.00E-6

HLIM 90  0 VLIM 1K

J1   11  2 10 JX

J2   12  1 10 JX

R2    6  9 100.0E3

RD1   4 11 3.183E3

RD2   4 12 3.183E3

RO1   8  5 25

RO2   7 99 75

RP    3  4 33.33E3

RSS  10 99 2.500E6

VB    9  0 DC 0

VC    3 53 DC 2

VE   54  4 DC 2

VLIM  7  8 DC 0

VLP  91  0 DC 29

VLN   0 92 DC 29

.MODEL DX D(IS=800.0E-18)

.MODEL JX PJF(IS=20.00E-15 BETA=616.8E-6 VTO=-1)

.ENDS

*

* connections:   non-inverting input

*                | inverting input

*                | | positive power supply

*                | | | negative power supply

*                | | | | output

*                | | | | |

.subckt OPA129   1 2 3 4 5

*

  c1   11 12 4.000E-12

  c2    6  7 2.204E-12

  dc    5 53 dx

  de   54  5 dx

  dlp  90 91 dx

  dln  92 90 dx

  dp    4  3 dx

  egnd 99  0 poly(2) (3,0) (4,0) 0 .5 .5

  fb    7 99 poly(5) vb vc ve vlp vln 0 192.5E6 -20E6 20E6 20E6 -20E6

  ga    6  0 11 12 314.2E-6

  gcm   0  6 10 99 395.5E-12

  iss   3 10 dc 80.00E-6

  hlim 90  0 vlim 1K

  j1   11  2 10 jx

  j2   12  1 10 jx

  r2    6  9 100.0E3

  rd1   4 11 3.183E3

  rd2   4 12 3.183E3

  ro1   8  5 25

  ro2   7 99 75

  rp    3  4 25.00E3

  rss  10 99 2.500E6

  vb    9  0 dc 0

  vc    3 53 dc 2

  ve   54  4 dc 2

  vlim  7  8 dc 0

  vlp  91  0 dc 22.00E-3

  vln   0 92 dc 22.00E-3

.model dx D(Is=800.0E-18)

.model jx PJF(Is=20.00E-15 Beta=616.8E-6 Vto=-1)

.ends OPA129

*

* connections:   non-inverting input

*                | inverting input

*                | | positive power supply

*                | | | negative power supply

*                | | | | output

*                | | | | |

.SUBCKT OPA130   1 2 3 4 5

*

C1   11 12 4.330E-12

C2    6  7 15.00E-12

CSS  10 99 1.000E-30

DC    5 53 DX

DE   54  5 DX

DLP  90 91 DX

DLN  92 90 DX

DP    4  3 DX

EGND 99  0 POLY(2) (3,0) (4,0) 0 .5 .5

FB    7 99 POLY(5) VB VC VE VLP VLN 0 2.386E9 -2E9 2E9 2E9 -2E9

GA    6  0 11 12 94.25E-6

GCM   0  6 10 99 530.1E-12

ISS   3 10 DC 30.00E-6

HLIM 90  0 VLIM 1E3

J1   11  2 10 JX

J2   12  1 10 JX

R2    6  9 100.0E3

RD1   4 11 10.61E3

RD2   4 12 10.61E3

RO1   8  5 50

RO2   7 99 25

RP    3  4 56.25E3

RSS  10 99 6.667E6

VB    9  0 DC 0

VC    3 53 DC 1.500

VE   54  4 DC 1

VLIM  7  8 DC 0

VLP  91  0 DC 18

VLN   0 92 DC 18

.MODEL DX D(IS=800.0E-18)

.MODEL JX PJF(IS=2.500E-12 BETA=296.1E-6 VTO=-1)

.ENDS

* connections:   non-inverting input

*                | inverting input

*                | | positive power supply

*                | | | negative power supply

*                | | | | output

*                | | | | |

.subckt OPA131   1 2 3 4 5

*

  c1   11 12 4.197E-12

  c2    6  7 18.00E-12

  css  10 99 7.200E-12

  dc    5 53 dx

  de   54  5 dx

  dlp  90 91 dx

  dln  92 90 dx

  dp    4  3 dx

  egnd 99  0 poly(2) (3,0) (4,0) 0 .5 .5

  fb    7 99 poly(5) vb vc ve vlp vln 0 127.3E6 -130E6 130E6 130E6 -130E6

  ga    6  0 11 12 452.4E-6

  gcm   0  6 10 99 45.24E-9

  iss   3 10 dc 252.0E-6

  hlim 90  0 vlim 1K

  j1   11  2 10 jx

  j2   12  1 10 jx

  r2    6  9 100.0E3

  rd1   4 11 2.210E3

  rd2   4 12 2.210E3

  ro1   8  5 50

  ro2   7 99 25

  rp    3  4 20.00E3

  rss  10 99 793.7E3

  vb    9  0 dc 0

  vc    3 53 dc 2.500

  ve   54  4 dc 2.500

  vlim  7  8 dc 0

  vlp  91  0 dc 20

  vln   0 92 dc 20

.model dx D(Is=800.0E-18)

.model jx PJF(Is=2.500E-12 Beta=812.1E-6 Vto=-1)

.ends  OPA131

*

* CONNECTIONS:   NON-INVERTING INPUT

*                | INVERTING INPUT

*                | | POSITIVE POWER SUPPLY

*                | | | NEGATIVE POWER SUPPLY

*                | | | | OUTPUT

*                | | | | |

.SUBCKT OPA177   1 2 3 4 5

*

C1   11 12 40p

C2    6  7 80p

DC    5 53 DX

DE   54  5 DX

DLP  90 91 DX

DLN  92 90 DX

DP    4  3 DX

EGND 99  0 POLY(2) (3,0) (4,0) 0 .5 .5

FB    7 99 POLY(5) VB VC VE VLP VLN 0 1.326E9 -1E9 1E9 1E9 -1E9

GA    6  0 11 12 301.6E-6

GCM   0  6 10 99 30.16E-12

IEE  10  4 DC 20.00E-6

HLIM 90  0 VLIM 1K

Q1   11  2 13 QX

Q2   12  1 14 QX

R2    6  9 100.0E3

RC1   3 11 3.316E3

RC2   3 12 3.316E3

RE1  13 10 729.2

RE2  14 10 729.2

REE  10 99 9.999E6

RO1   8  5 30

RO2   7 99 30

RP    3  4 15.15E3

VB    9  0 DC 0

VC    3 53 DC 1.500

VE   54  4 DC 1.500

VLIM  7  8 DC 0

VLP  91  0 DC 22

VLN   0 92 DC 22

.MODEL DX D(IS=800.0E-18)

.MODEL QX NPN(IS=800.0E-18 BF=10.00E3)

.ENDS



* CONNECTIONS:   NON-INVERTING INPUT

*                | INVERTING INPUT

*                | | POSITIVE POWER SUPPLY

*                | | | NEGATIVE POWER SUPPLY

*                | | | | OUTPUT

*                | | | | |

.SUBCKT OPA2107  1 2 3 4 5

*

C1   11 12 7.764E-12

C2    6  7 33.30E-12

DC    5 53 DX

DE   54  5 DX

DLP  90 91 DX

DLN  92 90 DX

DP    4  3 DX

EGND 99  0 POLY(2) (3,0) (4,0) 0 .5 .5

FB    7 99 POLY(5) VB VC VE VLP VLN 0 2.124E6 -2E6 2E6 2E6 -2E6

GA    6  0 11 12 941.5E-6

GCM   0  6 10 99 9.415E-9

ISS   3 10 DC 599.4E-6

HLIM 90  0 VLIM 1K

J1   11  2 10 JX

J2   12  1 10 JX

R2    6  9 100.0E3

RD1   4 11 1.062E3

RD2   4 12 1.062E3

RO1   8  5 50

RO2   7 99 50

RP    3  4 13.33E3

RSS  10 99 333.7E3

VB    9  0 DC 0

VC    3 53 DC 3

VE   54  4 DC 3

VLIM  7  8 DC 0

VLP  91  0 DC 40

VLN   0 92 DC 40

.MODEL DX D(IS=800.0E-18)

.MODEL JX PJF(IS=2.000E-12 BETA=739.5E-6 VTO=-1)

.ENDS



* CONNECTIONS:   NON-INVERTING INPUT

*                | INVERTING INPUT

*                | | POSITIVE POWER SUPPLY

*                | | | NEGATIVE POWER SUPPLY

*                | | | | OUTPUT

*                | | | | |

.SUBCKT OPA2111  1 2 3 4 5

*

C1   11 12 72.79E-12

C2    6  7 400.0E-12

DC    5 53 DX

DE   54  5 DX

DLP  90 91 DX

DLN  92 90 DX

DP    4  3 DX

EGND 99  0 POLY(2) (3,0) (4,0) 0 .5 .5

FB    7 99 POLY(5) VB VC VE VLP VLN 0 4.717E6 -5E6 5E6 5E6 -5E6

GA    6  0 11 12 5.027E-3

GCM   0  6 10 99 15.90E-9

ISS   3 10 DC 800.0E-6

HLIM 90  0 VLIM 1K

J1   11  2 10 JX

J2   12  1 10 JX

R2    6  9 100.0E3

RD1   4 11 198.9

RD2   4 12 198.9

RO1   8  5 25

RO2   7 99 75

RP    3  4 12.00E3

RSS  10 99 250.0E3

VB    9  0 DC 0

VC    3 53 DC 4

VE   54  4 DC 4

VLIM  7  8 DC 0

VLP  91  0 DC 40

VLN   0 92 DC 40

.MODEL DX D(IS=800.0E-18)

.MODEL JX PJF(IS=500.0E-15 BETA=15.79E-3 VTO=-1)

.ENDS


* connections:   non-inverting input

*                | inverting input

*                | | positive power supply

*                | | | negative power supply

*                | | | | output

*                | | | | |

.SUBCKT OPA2130   1 2 3 4 5

*

C1   11 12 4.330E-12

C2    6  7 15.00E-12

CSS  10 99 1.000E-30

DC    5 53 DX

DE   54  5 DX

DLP  90 91 DX

DLN  92 90 DX

DP    4  3 DX

EGND 99  0 POLY(2) (3,0) (4,0) 0 .5 .5

FB    7 99 POLY(5) VB VC VE VLP VLN 0 2.386E9 -2E9 2E9 2E9 -2E9

GA    6  0 11 12 94.25E-6

GCM   0  6 10 99 530.1E-12

ISS   3 10 DC 30.00E-6

HLIM 90  0 VLIM 1E3

J1   11  2 10 JX

J2   12  1 10 JX

R2    6  9 100.0E3

RD1   4 11 10.61E3

RD2   4 12 10.61E3

RO1   8  5 50

RO2   7 99 25

RP    3  4 56.25E3

RSS  10 99 6.667E6

VB    9  0 DC 0

VC    3 53 DC 1.500

VE   54  4 DC 1

VLIM  7  8 DC 0

VLP  91  0 DC 18

VLN   0 92 DC 18

.MODEL DX D(IS=800.0E-18)

.MODEL JX PJF(IS=2.500E-12 BETA=296.1E-6 VTO=-1)

.ENDS

* connections:   non-inverting input

*                | inverting input

*                | | positive power supply

*                | | | negative power supply

*                | | | | output

*                | | | | |

.subckt OPA2131  1 2 3 4 5

*

  c1   11 12 4.197E-12

  c2    6  7 18.00E-12

  css  10 99 7.200E-12

  dc    5 53 dx

  de   54  5 dx

  dlp  90 91 dx

  dln  92 90 dx

  dp    4  3 dx

  egnd 99  0 poly(2) (3,0) (4,0) 0 .5 .5

  fb    7 99 poly(5) vb vc ve vlp vln 0 127.3E6 -130E6 130E6 130E6 -130E6

  ga    6  0 11 12 452.4E-6

  gcm   0  6 10 99 45.24E-9

  iss   3 10 dc 252.0E-6

  hlim 90  0 vlim 1K

  j1   11  2 10 jx

  j2   12  1 10 jx

  r2    6  9 100.0E3

  rd1   4 11 2.210E3

  rd2   4 12 2.210E3

  ro1   8  5 50

  ro2   7 99 25

  rp    3  4 20.00E3

  rss  10 99 793.7E3

  vb    9  0 dc 0

  vc    3 53 dc 2.500

  ve   54  4 dc 2.500

  vlim  7  8 dc 0

  vlp  91  0 dc 20

  vln   0 92 dc 20

.model dx D(Is=800.0E-18)

.model jx PJF(Is=2.500E-12 Beta=812.1E-6 Vto=-1)

.ends  OPA2131


* connections:   non-inverting input

*                | inverting input

*                | | positive power supply

*                | | | negative power supply

*                | | | | output

*                | | | | |

.SUBCKT OPA2132   1 2 3 4 5

*

C1   11 12 3.240E-12

C2    6  7 8.000E-12

CSS  10 99 1.000E-30

DC    5 53 DX

DE   54  5 DX

DLP  90 91 DX

DLN  92 90 DX

DP    4  3 DX

EGND 99  0 POLY(2) (3,0) (4,0) 0 .5 .5

FB    7 99 POLY(5) VB VC VE VLP VLN 0 248.0E6 -250E6 250E6 250E6 -250E6

GA    6  0 11 12 402.0E-6

GCM   0  6 10 99 4.020E-9

ISS   3 10 DC 160.0E-6

HLIM 90  0 VLIM 1E3

J1   11  2 10 JX

J2   12  1 10 JX

R2    6  9 100.0E3

RD1   4 11 2.490E3

RD2   4 12 2.490E3

RO1   8  5 20

RO2   7 99 20

RP    3  4 7.500E3

RSS  10 99 1.250E6

VB    9  0 DC 0

VC    3 53 DC 1.200

VE   54  4 DC .9

VLIM  7  8 DC 0

VLP  91  0 DC 40

VLN   0 92 DC 40

.MODEL DX D(IS=800.0E-18)

.MODEL JX PJF(IS=2.500E-15 BETA=1.010E-3 VTO=-1)

.ENDS

* CONNECTIONS:   NON-INVERTING INPUT

*                | INVERTING INPUT

*                | | POSITIVE POWER SUPPLY

*                | | | NEGATIVE POWER SUPPLY

*                | | | | OUTPUT

*                | | | | |

.SUBCKT OPA2541  1 2 3 4 5

*

C1   11 12 10.71E-12

C2    6  7 15.00E-12

DC    5 53 DX

DE   54  5 DX

DLP  90 91 DX

DLN  92 90 DX

DP    4  3 DX

EGND 99  0 POLY(2) (3,0) (4,0) 0 .5 .5

FB    7 99 POLY(5) VB VC VE VLP VLN 0 2.653E9 -3E9 3E9 3E9 -3E9

GA    6  0 11 12 150.8E-6

GCM   0  6 10 99 337.6E-12

ISS   3 10 DC 120.0E-6

HLIM 90  0 VLIM 1K

J1   11  2 10 JX

J2   12  1 10 JX

R2    6  9 100.0E3

RD1   4 11 6.631E3

RD2   4 12 6.631E3

RO1   8  5 .25

RO2   7 99 .25

RP    3  4 4.000E3

RSS  10 99 1.667E6

VB    9  0 DC 0

VC    3 53 DC 5

VE   54  4 DC 5

VLIM  7  8 DC 0

VLP  91  0 DC 8.000E3

VLN   0 92 DC 8.000E3

.MODEL DX D(IS=800.0E-18)

.MODEL JX PJF(IS=2.000E-12 BETA=94.75E-6 VTO=-1)

.ENDS


* connections:   non-inverting input

*                | inverting input

*                | | positive power supply

*                | | | negative power supply

*                | | | | output

*                | | | | |

.SUBCKT OPA2544   1 2 3 4 5

*

C1   11 12 2.200E-12

C2    6  7 10.00E-12

DC    5 53 DX

DE   54  5 DX

DLP  90 91 DX

DLN  92 90 DX

DP    4  3 DX

EGND 99  0 POLY(2) (3,0) (4,0) 0 .5 .5

FB    7 99 POLY(5) VB VC VE VLP VLN 0 9.446E9 -9E9 9E9 9E9 -9E9

GA    6  0 11 12 87.96E-6

GCM   0  6 10 99 440.9E-12

ISS  10  4 DC 80.00E-6

HLIM 90  0 VLIM 1E3

J1   11  2 10 JX

J2   12  1 10 JX

R2    6  9 100.0E3

RD1   3 11 11.37E3

RD2   3 12 11.37E3

RO1   8  5 .17

RO2   7 99 .17

RP    3  4 5.833E3

RSS  10 99 2.500E6

VB    9  0 DC 0

VC    3 53 DC 4.400

VE   54  4 DC 3.800

VLIM  7  8 DC 0

VLP  91  0 DC 4.000E3

VLN   0 92 DC 4.000E3

.MODEL DX D(IS=800.0E-18)

.MODEL JX NJF(IS=7.500E-12 BETA=96.72E-6 VTO=-1)

.ENDS

* CONNECTIONS:   NON-INVERTING INPUT

*                | INVERTING INPUT

*                | | POSITIVE POWER SUPPLY

*                | | | NEGATIVE POWER SUPPLY

*                | | | | OUTPUT

*                | | | | |

.SUBCKT OPA2604  1 2 3 4 5

*

C1   11 12 22.85E-12

C2    6  7 32.00E-12

DC    5 53 DX

DE   54  5 DX

DLP  90 91 DX

DLN  92 90 DX

DP    4  3 DX

EGND 99  0 POLY(2) (3,0) (4,0) 0 .5 .5

FB    7 99 POLY(5) VB VC VE VLP VLN 0 418.4E3 -40E3 40E3 40E3 -40E3

GA    6  0 11 12 2.011E-3

GCM   0  6 10 99 20.11E-9

ISS   3 10 DC 800.0E-6

HLIM 90  0 VLIM 1K

J1   11  2 10 JX

J2   12  1 10 JX

R2    6  9 100.0E3

RD1   4 11 497.4

RD2   4 12 497.4

RO1   8  5 25

RO2   7 99 75

RP    3  4 6.294E3

RSS  10 99 250.0E3

VB    9  0 DC 0

VC    3 53 DC 3

VE   54  4 DC 3

VLIM  7  8 DC 0

VLP  91  0 DC 50

VLN   0 92 DC 50

.MODEL DX D(IS=800.0E-18)

.MODEL JX PJF(IS=12.50E-12 BETA=2.528E-3 VTO=-1)

.ENDS


* CONNECTIONS:   NON-INVERTING INPUT

*                | INVERTING INPUT

*                | | POSITIVE POWER SUPPLY

*                | | | NEGATIVE POWER SUPPLY

*                | | | | OUTPUT

*                | | | | |

.SUBCKT OPA27    1 2 3 4 5

*

C1   11 12 20.79E-12

C2    6  7 114.3E-12

CEE  10 99 5.713E-12

DC    5 53 DX

DE   54  5 DX

DLP  90 91 DX

DLN  92 90 DX

DP    4  3 DX

EGND 99  0 POLY(2) (3,0) (4,0) 0 .5 .5

FB    7 99 POLY(5) VB VC VE VLP VLN 0 10.95E6 -10E6 10E6 10E6 -10E6

GA    6  0 11 12 4.638E-3

GCM   0  6 10 99 2.608E-9

IEE  10  4 DC 240.0E-6

HLIM 90  0 VLIM 1K

Q1   11  2 13 QX

Q2   12  1 14 QX

R2    6  9 100.0E3

RC1   3 11 215.6

RC2   3 12 215.6

RE1  13 10 5.395E-3

RE2  14 10 5.395E-3

REE  10 99 833.5E3

RO1   8  5 35

RO2   7 99 35

RP    3  4 10.87E3

VB    9  0 DC 0

VC    3 53 DC 1.200

VE   54  4 DC 1.200

VLIM  7  8 DC 0

VLP  91  0 DC 25

VLN   0 92 DC 25

.MODEL DX D(IS=800.0E-18)

.MODEL QX NPN(IS=800.0E-18 BF=7.998E3)

.ENDS



* CONNECTIONS:   NON-INVERTING INPUT

*                | INVERTING INPUT

*                | | POSITIVE POWER SUPPLY

*                | | | NEGATIVE POWER SUPPLY

*                | | | | OUTPUT

*                | | | | |

.SUBCKT OPA37    1 2 3 4 5

*

C1   11 12 21.45E-12

C2    6  7 20.00E-12

DC    5 53 DX

DE   54  5 DX

DLP  90 91 DX

DLN  92 90 DX

DP    4  3 DX

EGND 99  0 POLY(2) (3,0) (4,0) 0 .5 .5

FB    7 99 POLY(5) VB VC VE VLP VLN 0 10.64E6 -10E6 10E6 10E6 -10E6

GA    6  0 11 12 4.775E-3

GCM   0  6 10 99 2.685E-9

IEE  10  4 DC 250.0E-6

HLIM 90  0 VLIM 1K

Q1   11  2 13 QX

Q2   12  1 14 QX

R2    6  9 100.0E3

RC1   3 11 209.4

RC2   3 12 209.4

RE1  13 10 2.501

RE2  14 10 2.501

REE  10 99 799.9E3

RO1   8  5 35

RO2   7 99 35

RP    3  4 10.91E3

VB    9  0 DC 0

VC    3 53 DC 1.200

VE   54  4 DC 1.200

VLIM  7  8 DC 0

VLP  91  0 DC 25

VLN   0 92 DC 25

.MODEL DX D(IS=800.0E-18)

.MODEL QX NPN(IS=800.0E-18 BF=8.333E3)

.ENDS



* CONNECTIONS:   NON-INVERTING INPUT

*                | INVERTING INPUT

*                | | POSITIVE POWER SUPPLY

*                | | | NEGATIVE POWER SUPPLY

*                | | | | OUTPUT

*                | | | | |

.SUBCKT OPA404   1 2 3 4 5

*

C1   11 12 6.850E-12

C2    6  7 13.70E-12

DC    5 53 DX

DE   54  5 DX

DLP  90 91 DX

DLN  92 90 DX

DP    4  3 DX

EGND 99  0 POLY(2) (3,0) (4,0) 0 .5 .5

FB    7 99 POLY(5) VB VC VE VLP VLN 0 2.213E6 -2E6 2E6 2E6 -2E6

GA    6  0 11 12 602.6E-6

GCM   0  6 10 99 6.026E-9

ISS   3 10 DC 479.5E-6

HLIM 90  0 VLIM 1K

J1   11  2 10 JX

J2   12  1 10 JX

R2    6  9 100.0E3

RD1   4 11 1.660E3

RD2   4 12 1.660E3

RO1   8  5 25

RO2   7 99 75

RP    3  4 13.33E3

RSS  10 99 417.1E3

VB    9  0 DC 0

VC    3 53 DC 1.800

VE   54  4 DC 1.200

VLIM  7  8 DC 0

VLP  91  0 DC 18

VLN   0 92 DC 18

.MODEL DX D(IS=800.0E-18)

.MODEL JX PJF(IS=500.0E-15 BETA=3.785E-4 VTO=-1)

.ENDS


*

*

* connections:   non-inverting input

*                | inverting input

*                | | positive power supply

*                | | | negative power supply

*                | | | | output

*                | | | | |

.SUBCKT OPA4130   1 2 3 4 5

*

C1   11 12 4.330E-12

C2    6  7 15.00E-12

CSS  10 99 1.000E-30

DC    5 53 DX

DE   54  5 DX

DLP  90 91 DX

DLN  92 90 DX

DP    4  3 DX

EGND 99  0 POLY(2) (3,0) (4,0) 0 .5 .5

FB    7 99 POLY(5) VB VC VE VLP VLN 0 2.386E9 -2E9 2E9 2E9 -2E9

GA    6  0 11 12 94.25E-6

GCM   0  6 10 99 530.1E-12

ISS   3 10 DC 30.00E-6

HLIM 90  0 VLIM 1E3

J1   11  2 10 JX

J2   12  1 10 JX

R2    6  9 100.0E3

RD1   4 11 10.61E3

RD2   4 12 10.61E3

RO1   8  5 50

RO2   7 99 25

RP    3  4 56.25E3

RSS  10 99 6.667E6

VB    9  0 DC 0

VC    3 53 DC 1.500

VE   54  4 DC 1

VLIM  7  8 DC 0

VLP  91  0 DC 18

VLN   0 92 DC 18

.MODEL DX D(IS=800.0E-18)

.MODEL JX PJF(IS=2.500E-12 BETA=296.1E-6 VTO=-1)

.ENDS

* connections:   non-inverting input

*                | inverting input

*                | | positive power supply

*                | | | negative power supply

*                | | | | output

*                | | | | |

.subckt OPA4131  1 2 3 4 5

*

  c1   11 12 4.197E-12

  c2    6  7 18.00E-12

  css  10 99 7.200E-12

  dc    5 53 dx

  de   54  5 dx

  dlp  90 91 dx

  dln  92 90 dx

  dp    4  3 dx

  egnd 99  0 poly(2) (3,0) (4,0) 0 .5 .5

  fb    7 99 poly(5) vb vc ve vlp vln 0 127.3E6 -130E6 130E6 130E6 -130E6

  ga    6  0 11 12 452.4E-6

  gcm   0  6 10 99 45.24E-9

  iss   3 10 dc 252.0E-6

  hlim 90  0 vlim 1K

  j1   11  2 10 jx

  j2   12  1 10 jx

  r2    6  9 100.0E3

  rd1   4 11 2.210E3

  rd2   4 12 2.210E3

  ro1   8  5 50

  ro2   7 99 25

  rp    3  4 20.00E3

  rss  10 99 793.7E3

  vb    9  0 dc 0

  vc    3 53 dc 2.500

  ve   54  4 dc 2.500

  vlim  7  8 dc 0

  vlp  91  0 dc 20

  vln   0 92 dc 20

.model dx D(Is=800.0E-18)

.model jx PJF(Is=2.500E-12 Beta=812.1E-6 Vto=-1)

.ends  OPA4131


*

* connections:   non-inverting input

*                | inverting input

*                | | positive power supply

*                | | | negative power supply

*                | | | | output

*                | | | | |

.SUBCKT OPA4132   1 2 3 4 5

*

C1   11 12 3.240E-12

C2    6  7 8.000E-12

CSS  10 99 1.000E-30

DC    5 53 DX

DE   54  5 DX

DLP  90 91 DX

DLN  92 90 DX

DP    4  3 DX

EGND 99  0 POLY(2) (3,0) (4,0) 0 .5 .5

FB    7 99 POLY(5) VB VC VE VLP VLN 0 248.0E6 -250E6 250E6 250E6 -250E6

GA    6  0 11 12 402.0E-6

GCM   0  6 10 99 4.020E-9

ISS   3 10 DC 160.0E-6

HLIM 90  0 VLIM 1E3

J1   11  2 10 JX

J2   12  1 10 JX

R2    6  9 100.0E3

RD1   4 11 2.490E3

RD2   4 12 2.490E3

RO1   8  5 20

RO2   7 99 20

RP    3  4 7.500E3

RSS  10 99 1.250E6

VB    9  0 DC 0

VC    3 53 DC 1.200

VE   54  4 DC .9

VLIM  7  8 DC 0

VLP  91  0 DC 40

VLN   0 92 DC 40

.MODEL DX D(IS=800.0E-18)

.MODEL JX PJF(IS=2.500E-15 BETA=1.010E-3 VTO=-1)

.ENDS
*

* CONNECTIONS:   NON-INVERTING INPUT

*                | INVERTING INPUT

*                | | POSITIVE POWER SUPPLY

*                | | | NEGATIVE POWER SUPPLY

*                | | | | OUTPUT

*                | | | | |

.SUBCKT OPA445   1 2 3 4 5

*

C1   11 12 5.252E-12

C2    6  7 15.00E-12

DC    5 53 DX

DE   54  5 DX

DLP  90 91 DX

DLN  92 90 DX

DP    4  3 DX

EGND 99  0 POLY(2) (3,0) (4,0) 0 .5 .5

FB    7 99 POLY(5) VB VC VE VLP VLN 0 37.74E6 -40E6 40E6 40E6 -40E6

GA    6  0 11 12 188.5E-6

GCM   0  6 10 99 3.352E-9

ISS   3 10 DC 202.5E-6

HLIM 90  0 VLIM 1K

J1   11  2 10 JX

J2   12  1 10 JX

R2    6  9 100.0E3

RD1   4 11 5.305E3

RD2   4 12 5.305E3

RO1   8  5 25

RO2   7 99 25

RP    3  4 21.05E3

RSS  10 99 987.7E3

VB    9  0 DC 0

VC    3 53 DC 5

VE   54  4 DC 5

VLIM  7  8 DC 0

VLP  91  0 DC 26

VLN   0 92 DC 26

.MODEL DX D(IS=800.0E-18)

.MODEL JX PJF(IS=10.00E-12 BETA=87.73E-6 VTO=-1)

.ENDS



* CONNECTIONS:     INVERTING INPUT

*                  |   NON-INVERTING INPUT

*                  |   |   NEGATIVE POWER SUPPLY

*                  |   |   |   OUTPUT

*                  |   |   |   |   POSITIVE POWER SUPPLY

*                  |   |   |   |   |   

.SUBCKT OPA4658X   8   9   7   10  6  

*

* Input Stage

*

ISOUR1   11  13  DC 0.5MA

ISOUR2   14  12  DC 0.5MA

Q2       14  14  4   1 PNP1 2

Q4       18  14  3   1 PNP1 2

Q1       13  13  4   2 NPN1 2

Q3       15  13  3   2 NPN1 2

R5       11  12  20K

C3       13  0   0.3E-12

C4       14  0   0.1E-12

R16      1   11  10

R17      2   12  10

C1       11  12  1E-12

*

* Gain Stage

*

Q7       24  15  37  1 PNP1 6

Q6       37  17  20  1 PNP1 6

Q5       15  37  16  1 PNP1 6

Q8       18  19  22  2 NPN1 3

Q9       19  23  21  2 NPN1 3

Q10      26  18  19  2 NPN1 3

R1       11  16  300

R2       11  20  300

R3       22  12  100

R4       21  12  100

R12      37  17  600

R6       19  23  200

C2       25  12  0.55E-12

*

* Output Stage

*

Q21      1   33  36  2 NPN1 48

Q22      2   35  36  1 PNP1 48

Q11      12  26  28  1 PNP1 3

Q12      11  24  30  2 NPN1 3

Q20      35  34  33  1 PNP1 10

Q19      33  34  35  2 NPN1 10

Q13      29  29  28  2 NPN1 3

Q17      1   29  33  2 NPN1 2

Q14      31  31  30  1 PNP1 3

Q18      2   31  35  1 PNP1 2

Q15      29  37  27  1 PNP1 6

Q16      31  19  32  2 NPN1 3

R9       11  27  300

R10      32  12  100

R7       24  25  80

R8       25  26  80

R11      36  5   10

*

* Package Parasitics

*

CINV     8   0   .75E-12

L6P      49  48  1.5E-9

L4P      46  45  1.08E-9

L2P      43  42  1.08E-9

C8P      55  2   .0425E-12

L3P      44  4   .7E-9

C1P      42  2   .0425E-12

C2P      42  45  .05E-12

C3P      45  2   .0425E-12

C4P      45  48  .05E-12

C5P      48  2   .0125E-12

C6P      52  2   .0425E-12

C7P      52  55  .05E-12

L1P      41  3   .7E-9

L5P      47  2   .7E-9

L7P      51  1   .7E-9

L8P      53  52  1.08E-9

L9P      54  5   .7E-9

L10P     56  55  1.08E-9

L11P     2   50  .7E-9

R1P      42  41  .1

R2P      8   43  .1

R3P      45  44  .1

R4P      9   46  .1

R5P      48  47  .1

R6P      7   49  .1

R11P     50  48  .025

R7P      52  51  .1

R8P      6   53  .1

R9P      55  54  .1

R10P     10  56  .1

*

* MODELS USED


.MODEL NPN1 NPN (IS  = 4.647E-17  BF   = 2.293E+02  NF  = 1.000E+00  VAF = 4.398E+01
+ IKF = 7.233E-03  ISE  = 1.222E-14  NE  = 2.000E+00  BR  = 3.695E+01
+ NR  = 1.000E+00  VAR  = 1.494E+00  IKR = 1.667E+05  ISC = 1.057E-14
+ NC  = 1.653E+00  RB   = 3.170E+02  IRB = 0.000E+00  RBM = 1.500E+02
+ RE  = 1.133E+01  RC   = 2.768E+01  CJE = 2.070E-14  VJE = 7.414E-01
+ MJE = 4.950E-01  TF   = 1.150E-11  XTF = 2.452E+01  VTF = 1.029E+00
+ ITF = 1.878E-02  PTF  = 0.000E+00  CJC = 3.661E-14  VJC = 6.465E-01
+ MJC = 4.509E-01  XCJC = 1.270E-01  TR  = 3.240E-10  CJS = 5.326E-14
+ VJS = 5.291E-01  MJS  = 4.389E-01  XTB = 1.218E+00  EG  = 1.184E+00
+ XTI = 2.000E+00  KF   = 0.000E+00  AF  = 1.000E+00  FC  = 8.614E-01)


.MODEL PNP1 PNP (IS  = 2.628E-17  BF   = 1.478E+02  NF  = 1.000E+00  VAF = 3.106E+01
+ IKF = 3.115E-03  ISE  = 8.930E-17  NE  = 1.283E+00  BR  = 3.061E+03
+ NR  = 1.000E+00  VAR  = 1.448E+00  IKR = 5.000E-03  ISC = 1.061E-14
+ NC  = 1.634E+00  RB   = 2.794E+02  IRB = 0.000E+00  RBM = 1.544E+02
+ RE  = 7.452E+00  RC   = 1.142E+02  CJE = 2.038E-14  VJE = 7.470E-01
+ MJE = 4.930E-01  TF   = 1.434E-11  XTF = 2.216E+01  VTF = 1.072E+00
+ ITF = 2.397E-02  PTF  = 0.000E+00  CJC = 6.106E-14  VJC = 7.743E-01
+ MJC = 5.185E-01  XCJC = 8.499E-02  TR  = 6.500E-10  CJS = 2.855E-13
+ VJS = 9.063E-01  MJS  = 4.931E-01  XTB = 1.181E+00  EG  = 1.184E+00
+ XTI = 2.000E+00  KF   = 0.000E+00  AF  = 1.000E+00  FC  = 9.014E-01)

.ENDS OPA4658X




* CONNECTIONS:   NON-INVERTING INPUT

*                | INVERTING INPUT

*                | | POSITIVE POWER SUPPLY

*                | | | NEGATIVE POWER SUPPLY

*                | | | | OUTPUT

*                | | | | |

.SUBCKT OPA501   1 2 3 4 5

*

C1   11 12 20.00E-12

C2    6  7 40.00E-12

DC    5 53 DX

DE   54  5 DX

DLP  90 91 DX

DLN  92 90 DX

DP    4  3 DX

EGND 99  0 POLY(2) (3,0) (4,0) 0 .5 .5

FB    7 99 POLY(5) VB VC VE VLP VLN 0 12.64E9 -10E9 10E9 10E9 -10E9

GA    6  0 11 12 251.3E-6

GCM   0  6 10 99 794.8E-12

ISS   3 10 DC 160.0E-6

HLIM 90  0 VLIM 1K

J1   11  2 10 JX

J2   12  1 10 JX

R2    6  9 100.0E3

RD1   4 11 3.979E3

RD2   4 12 3.979E3

RO1   8  5 .25

RO2   7 99 .25

RP    3  4 26.12E3

RSS  10 99 1.250E6

VB    9  0 DC 0

VC    3 53 DC 5

VE   54  4 DC 5

VLIM  7  8 DC 0

VLP  91  0 DC 12.00E3

VLN   0 92 DC 12.00E3

.MODEL DX D(IS=800.0E-18)
