*****************************************************************************************
*******Librería de amplificadores operacionales caracterizados en 5 terminales.**********
*para su conveniencia úsela con el símbolo opamp5.sym, ubicado en \sym\Robertugo
*y elija el modelo apropiado desde el editor de propiedades de componentes.
*Reunida por Robertugo_2005.
* Copyright © Linear Technology Corp. 1998, 1999, 2000, 2001, 2002, 2003, 2004, 2005.  All rights reserved.
*
.subckt 1pole 1 2 3 4 5
S1 5 3 N002 5 Q
S2 4 5 5 N002 Q
A1 2 1 0 0 0 0 N002 0 OTA G={Avol/Rout} ref={Vos} Iout={slew*Cout} Cout={Cout} en={en} enk={enk} in={in} ink={ink} Vhigh=1e308 Vlow=-1e308
C3 5 4 1p
C4 3 5 1p
R2 N002 4 {2*Rout} noiseless
R1 3 N002 {2*Rout} noiseless
R3 3 1 {2*Rin} noiseless
R4 3 2 {2*Rin} noiseless
R5 2 4 {2*Rin} noiseless
R6 1 4 {2*Rin} noiseless
G1 0 N002 4 N002 table(0 0 10 {2*slew*Cout})
G2 N002 0 N002 3 table(0 0 10 {2*slew*Cout})
.param Rout=100Meg
.param Cout={Avol/GBW/2/pi/Rout}
.model Q SW(Ron=10 Roff=10Meg Vt=0 Vh=-.1 Vser={Rail} ilimit={Ilimit} noiseless)
.param Avol=1Meg GBW=10Meg Slew=10Meg ilimit=25m rail=0 Vos=0
.param en=0 enk=0 in=0 ink=0 Rin=500Meg
.ends
.subckt 2pole 1 2 3 4 5
S1 5 3 N001 5 Q
S2 4 5 5 N001 Q
A1 2 1 0 0 0 0 N002 0 OTA G={Avol/Rout} ref={Vos} Iout={slew*Cout} Cout={Cout} en={en} enk={enk} in={in} ink={ink} Vhigh=1e308 Vlow=-1e308
C3 5 4 1p
C4 3 5 1p
R3 3 2 {2*Rin} noiseless
G1 0 N001 N002 0 {1/Rout}
R2 N001 0 {Rout} noiseless
C1 N001 0 {X*Cout/Avol}
R4 3 1 {2*Rin} noiseless
R5 1 4 {2*Rin} noiseless
R6 2 4 {2*Rin} noiseless
G2 0 N002 4 N002 table(0 0 10 {2*slew*Cout})
G3 N002 0 N002 3 table(0 0 10 {2*slew*Cout})
R9 3 N002 {2*Rout} noiseless
R10 N002 4 {2*Rout} noiseless
.param Rout=100Meg
.param Cout={Avol/GBW/2/pi/Rout}
.model Q SW(Ron=10 Roff=10Meg Vt=0 Vh=-.1 Vser={Rail} ilimit={Ilimit} noiseless)
.param Avol=1Meg GBW=10Meg Slew=10Meg rail=0 Vos=0 ilimit=25m
.param en=0 enk=0 in=0 ink=0 phimargin=45 Rin=500Meg
.param X table(phimargin,29.4,3.5,32.1,2.9,33.8,2.6,35.8,2.3,38.1,2,40.9,1.7,43.2,1.5,45.9,1.3,49.2,1.1,53.2,0.9,58.2,0.7,64.7,0.5,73,0.3,86.1,0.05)
.ends
*
.subckt level1 1 2 3 4 5
A1 2 1 0 0 0 0 5 0 OTA G={Avol/Rout} ref={Vos} linear Cout={Cout} en={en} enk={enk} in={in} ink={ink} incm={incm} incmk={incmk} Vhigh=1e308 Vlow=-1e308 Rout={Rout}
R5 2 3 {2*Rin} noiseless
R6 1 4 {2*Rin} noiseless
R1 3 1 {2*Rin} noiseless
R2 2 4 {2*Rin} noiseless
.param Rout=.1
.param Cout={Avol/GBW/2/pi/Rout}
.param Avol=1Meg GBW=10Meg Slew=10Meg ilimit=25m rail=0 Vos=0
.param en=0 enk=0 in=0 ink=0 incm=0 incmk=0 Rin=1G
.ends
*
.subckt level2 1 2 3 4 5
S1 5 3 N002 5 Q
S2 4 5 5 N002 Q
A1 2 1 0 0 0 0 N002 0 OTA G={Avol/Rout} ref={Vos} Iout={slew*Cout} Cout={Cout} en={en} enk={enk} in={in} ink={ink} incm={incm} incmk={incmk} Vhigh=1e308 Vlow=-1e308
C3 5 4 1p
C4 3 5 1p
R2 N002 4 {2*Rout} noiseless
R1 3 N002 {2*Rout} noiseless
R3 3 1 {2*Rin} noiseless
R4 3 2 {2*Rin} noiseless
R5 2 4 {2*Rin} noiseless
R6 1 4 {2*Rin} noiseless
G1 0 N002 4 N002 table(0 0 10 {2*slew*Cout})
G2 N002 0 N002 3 table(0 0 10 {2*slew*Cout})
.param Rout=100Meg
.param Cout={Avol/GBW/2/pi/Rout}
.model Q SW(Ron=10 Roff=10Meg Vt=0 Vh=-.1 Vser={Rail} ilimit={Ilimit} noiseless)
.param Avol=1Meg GBW=10Meg Slew=10Meg ilimit=25m rail=0 Vos=0
.param en=0 enk=0 in=0 ink=0 incm=0 incmk=0 Rin=1G
.ends
*
* Copyright © Linear Technology Corp. 1998, 1999, 2000, 2001, 2002, 2003, 2004, 2005.  All rights reserved.
*
subckt level3a 1 2 3 4 5
S1 5 3 N003 5 Q
S2 4 5 5 N003 Q
A1 2 1 0 0 0 0 N002 0 OTA G={Avol/Rout} ref={Vos} Iout={slew*Cout} Cout={Cout} en={en} enk={enk} in={in} ink={ink} incm={incm} incmk={incmk} Vhigh=1e308 Vlow=-1e308
C3 5 4 1p
C4 3 5 1p
R3 3 2 {2*Rin} noiseless
G1 0 N003 N002 0 {1/Rout}
R2 N003 0 {Rout} noiseless
C1 N003 0 {X*Cout/Avol}
R4 3 1 {2*Rin} noiseless
R5 1 4 {2*Rin} noiseless
R6 2 4 {2*Rin} noiseless
G2 0 N002 4 N002 table(0 0 10 {2*slew*Cout})
G3 N002 0 N002 3 table(0 0 10 {2*slew*Cout})
R1 N002 4 {2*Rout} noiseless
R7 3 N002 {2*Rout} noiseless
.param Rout=100Meg
.param Cout={Avol/GBW/2/pi/Rout}
.model Q SW(Ron=10 Roff=10Meg Vt=0 Vh=-.1 Vser={Rail} ilimit={Ilimit} noiseless)
.param Avol=1Meg GBW=10Meg Slew=10Meg rail=0 Vos=0 ilimit=25m
.param en=0 enk=0 in=0 ink=0 incm=0 incmk=0 Rin=1G phimargin=45
.param X table(phimargin,29.4,3.5,32.1,2.9,33.8,2.6,35.8,2.3,38.1,2,40.9,1.7,43.2,1.5,45.9,1.3,49.2,1.1,53.2,0.9,58.2,0.7,64.7,0.5,73,0.3,86.1,0.05)
.ends
*
.subckt level3b 1 2 3 4 5
S1 5 3 N007 5 Q
S2 4 5 5 N007 Q
A1 2 1 0 0 0 0 N002 0 OTA G={Avol/Rout} ref={Vos} Iout={slew*Cout} Cout={Cout} en={en} enk={enk} in={in} ink={ink} incm={incm} incmk={incmk} Vhigh=1e308 Vlow=-1e308
C3 5 4 1p
C4 3 5 1p
R3 3 2 {2*Rin} noiseless
R4 3 1 {2*Rin} noiseless
R5 1 4 {2*Rin} noiseless
R6 2 4 {2*Rin} noiseless
G2 0 N007 N006 0 10µ
R9 0 N007 100K noiseless
G1 0 N003 N002 0 {2/Rz}
C1 N003 0 {.768*Cd}
L1 N003 N004 41.2µ
R1 N003 0 {Rz} noiseless
R2 N006 0 {Rz} noiseless
L2 N004 N005 23.8µ
L3 N005 N006 11.04µ
C2 N004 0 {.294*Cd}
C5 N005 0 {.178*Cd}
C6 N006 0 {.0375*Cd}
G3 0 N002 4 N002 table(0 0 10 {2*slew*Cout})
G4 N002 0 N002 3 table(0 0 10 {2*slew*Cout})
R7 3 N002 {2*Rout} noiseless
R8 N002 4 {2*Rout} noiseless
.param Rout=100Meg
.param Cout={Avol/GBW/2/pi/Rout}
.model Q SW(Ron=10 Roff=10Meg Vt=0 Vh=-.1 Vser={Rail} ilimit={Ilimit} noiseless)
.param Avol=1Meg GBW=10Meg Slew=10Meg rail=0 Vos=0 ilimit=25m
.param en=0 enk=0 in=0 ink=0 incm=0 incmk=0 Rin=1G phimargin=45
.param delay=(90-MIN(phimargin,89))/360/GBW
.param Rz=sqrt(100u/Cd)
.param Cd=delay*delay/100u
.ends
*
.SUBCKT xopps in out psp psm vgnd  
* Additional quiescent current if needed.
* Example:  X1 xopps ....  IQ=1m
.PARAM IQ=1p
V1 in out 0
G1 psp vgnd VALUE={if((I(V1)>0),(I(V1)+IQ),IQ)}
G2 vgnd psm VALUE={if((I(V1)<0),(-I(V1)+IQ),IQ)}
.ends
* Simple parametrized opamp models for general purpose simulations.
* The most important transient and AC properties are included.
* DC precision (offset, bias, ...) is not modelled.
* All frequency dependent behavior is linked to the GBW (Gain BandWidth
*  product) parameter, so that GBW can be used to scale the whole opamp.
*
* The open loop DCgain and GBW parameters of the current feedback opamp are 
*  specified for the combination of the opamp and its feedback resistor Rfb 
*  in series with its inverting input.  This convention makes these parameters  
*  equivalent and comparable to voltage feedback opamp parameters.
* To derive DCgain and GBW from CFB opamp datasheets: divide the 
*  published open loop DC transresistance by the specified Rfb to
*  obtain DCgain, and divide the open loop transimpedance-frequency product
*  as seen in typical curves by the specified Rfb to obtain GBW. 
* Note that for wideband opamps (both VFB and CFB) the unity gain bandwidth
*  is much higher than the GBW due to high Q closed loop poles.  For example
*  an opamp with 1GHz unity gain bandwidth might have a GBW of only 300MHz. 
*
*Luc Heylen 2006
*


* Parametrized Voltage Feedback opamp
* slew: slew rate [V/s], relative to GBW parameter.
* fmargin: corner freq of high order poles [Hz], relative to GBW.
.subckt paramVFBopamp +In -In Vcc Vee OUT
.param GBW=10e6, DCgain=1e5, VsatPos=1.5V, VsatNeg=1.5V
.param slew=1, fmargin=4, Rout=100, curlimSource=40mA, curlimSink=40mA, Iq=4mA
D1 +in Vcc Dclamp
D2 Vee +in Dclamp
D3 -in Vcc Dclamp
D4 Vee -in Dclamp
B1 0 n3 I=1e-3*slew*tanh(V(n2)*2*pi/slew)/2/pi tripdv=10m tripdt={10m/GBW}
C1 n3 0 {1e-3/(2*pi*GBW)} Rser=0
R1 n3 0 {1e3*DCgain}
G1 0 n1 +in -in 2e-3
C2 n2 0 {2.2034e-3/(fmargin*GBW*2*pi)}
C3 n1 0 {0.3374e-3/(fmargin*GBW*2*pi)}
L1 n1 n2 {0.9705e3/(fmargin*GBW*2*pi)}
R2 n1 0 1k noiseless
R3 n2 0 1k noiseless
D5 out Vcc Dclamp
D6 Vee out Dclamp
B_1 n4 out I=limit((V(n4)-V(out))/Rout,-curlimSink,curlimSource) tripdv=10m tripdt={10m/GBW}
D_1 n3 Vcc DsatPos
D_2 Vee n3 DsatNeg
E1 n4 0 n3 0 1
C6 out n4 1p Rpar=1e6
R4 n4 0 1k
.model Dclamp D(Ron=0.1 Roff=2e8 Vfwd=0.6)
.model DsatPos D(Ron=300 Roff={DCgain*1e12} Vfwd={-VsatPos})
.model DsatNeg D(Ron=300 Roff={DCgain*1e12} Vfwd={-VsatNeg})
.ends paramVFBopamp


* Parametrized Current Feedback opamp
* slew: slew rate [V/s], relative to GBW parameter.
* fmargin: corner freq of high order poles [Hz], relative to GBW.
* Rfb: specified feedback resistor for which the other parameters are valid.
* Rinv and Linv: resistance and inductance of inverting input.
*  Note: open loop transresistance is DCgain*Rfb
.subckt paramCFBopamp +In -In Vcc Vee OUT
.param GBW=100e6, DCgain=1e3, VsatPos=1.5V, VsatNeg=1.5V, Rfb=1k, Rinv=10, Linv=10n
.param slew=5, fmargin=3, Rout=10, curlimSource=60mA, curlimSink=60mA, Iq=10mA
D1 +in Vcc Dclamp
D2 Vee +in Dclamp
D3 -in Vcc Dclamp
D4 Vee -in Dclamp
C2 n2 0 {2.2034e-3/(fmargin*GBW*2*pi)}
C3 n1 0 {0.3374e-3/(fmargin*GBW*2*pi)}
L1 n1 n2 {0.9705e3/(fmargin*GBW*2*pi)}
E1 nbuf 0 +in 0 1
L2 nbuf -in {Linv} Rser={Rinv}
R3 n1 0 1k noiseless
R4 n2 0 1k noiseless
B1 0 n3 I=1e-3*slew*tanh(V(n2)*2*pi/slew)/2/pi tripdv=10m tripdt={10m/GBW}
C1 n3 0 {1e-3/(2*pi*GBW)} Rser=0
R1 n3 0 {1e3*DCgain}
F1 n1 0 E1 {2e-3*Rfb}
D5 out Vcc Dclamp
D6 Vee out Dclamp
B_1 n4 out I=limit((V(n4)-V(out))/Rout,-curlimSink,curlimSource) tripdv=10m tripdt={10m/GBW}
D_1 n3 Vcc DsatPos
D_2 Vee n3 DsatNeg
E2 n4 0 n3 0 1
C6 out n4 1p Rpar=1e6
R2 n4 0 1k
.model Dclamp D(Ron=0.1 Roff=2e8 Vfwd=0.6)
.model DsatPos D(Ron=300 Roff={DCgain*1e12} Vfwd={-VsatPos})
.model DsatNeg D(Ron=300 Roff={DCgain*1e12} Vfwd={-VsatNeg})
.ends paramCFBopamp
*
*
* source ADA4899
.SUBCKT ADA4899 INV NINV OUT VCC VEE
*
* Version 0602192
* Generated by Interface Technologies
* www.i-t.com
*  
I_I1         4 VEE_INT DC 1e-2  
D_D_VEEclamp         VEEVNBAT 10 DN 
R_RP3         MAINP2 100 RCOLD 1
I_I4         100 ISUPP2 DC .6m  
R_RCM2         VINMID INV RCOLD 1000MEG
D_DN1         35 36 DEN 
Q_Q2         6 INV 8 NPN 
R_RCMR1         CMR_SET 100 RCOLD 1
D_D9         ISUPP2 VEE DNOM 
G_G2         100 10A 10 100 1
R_Rout         80 81 RCOLD 30
D_DN4         94 95 DIN 
E_E1         100 0 103 0 1
E_E4         VCC_INT 0 VCC 0 1
G_GV         100 15 6 5 1
V_VL1         82 81 .089
L_LCM         31 30  5.1931e-4  
G_GN1         0 NINV 94 0 0.7e-6
V_VN3         0 93 2
I_I2         ISUPP1 100 DC .6m  
R_RP1         10 100 RCOLD 1.31e6
E_E5         VEE_INT 0 VEE 0 1
D_D11         83 MAINP2 DILIM 
E_DIFF1         CMRERR 0 VALUE {V(CMR_SET,VINMID)}
D_DN5         96 97 DIN 
C_CCM3         100 CMRRP2  1.8e-9  
R_R4         100 ISUPP2 RCOLD 10meg
E_E7         CMR_SET 100 VALUE { Limit(V(VINMID, 100), -3.7, 3.7) }
E_ENIN         N265500 N265385 36 0 3.5e-10
V_VN5         0 96 2
R_RCM4         CMRR_V 100 RCOLD 1
L_LCM1         N298875 CMRRP1  3.899e-8  
E_EOS1         NINV N264552 POLY(1) CMRERR 100 0.0 0
C_COPOUT         100 81  2p  
R_R3         ISUPP1 100 RCOLD 10meg
R_RE1         7 4 RCOLD 10
V_VN2         37 0 3Vdc
C_CP1         100 10  4.0e-12  
R_RCM1b         31 100 RCOLD 4
G_G3a         100 MAINP2 10A 100 1
R_R5         100 CMRERR RCOLD 1k
G_G10         0 INV 97 0 0
L_Lout         OUT 81  .011f  
V_VN6         98 0 2
R_R6         CMRRP1 N298875 RCOLD 4
R_RCM2a         N298875 100 RCOLD 1
R_RC2         VCC_INT 6 RCOLD 15.17
G_G4         100 ISUPP2 80 81 -.033
D_D10         MAINP2 82 DILIM 
R_RCM3         CMRRP2 100 RCOLD 1
C_CP2         100 10A  2.27e-10  
D_DN2         36 37 DEN 
Q_Q1         5 N265500 7 NPN 
D_D8         VCC ISUPP1 DNOM 
G_G8         100 CMRR_V CMRRP2 100 1
D_DN6         97 98 DIN 
C_CP3         100 MAINP2  2.27e-10  
G_G7         100 CMRRP2 CMRRP1 100 1
R_RC1         VCC_INT 5 RCOLD 15.17
D_D7         ISUPP2 100 DZ 
G_G1         100 10 15 100 1e-4
V_VP         VCC_INT VCCVPBAT 1.68
G_G6         100 CMRRP1 30 100 1
D_DN3         93 94 DIN 
R_RV         15 100 RCOLD 100
E_EBUF         80 100 MAINP2 100 1
R_RCM1         NINV VINMID RCOLD 1000MEG
D_DZ1         15 16 DLIM 
R_RE2         8 4 RCOLD 10
D_D6         100 ISUPP1 DZ 
C_CCM4         100 CMRR_V  1.8e-9  
D_D_VCCclamp         10 VCCVPBAT DP 
V_VL2         81 83 .089
V_VN1         0 35 3Vdc
E_E8         103 VEE_INT VALUE { (V(VCC_INT)-V(VEE_INT))/2 }
R_RCM2b         30 31 RCOLD 1.56e7
V_VN         VEEVNBAT VEE_INT 1.68
D_DZ2         100 16 DLIM 
E_EOS         N264552 N265385 POLY(1) CMRR_V 100 0.0 0
G_G5         100 30 VINMID 100 9.162e-8
G_G3         ISUPP1 100 80 81 .033
V_VN4         95 0 2
R_RP2         10A 100 RCOLD 1
.MODEL DLIM D(IS=1E-15 BV=13.22)
.MODEL DEN  D(IS=1E-9 RS=1000 KF=1.5E-12 AF=.89)
.MODEL DIN  D(IS=.85E-9 RS=1 KF=1.5E-17 AF=.92)
.MODEL	DNOM	D(IS=1E-15 T_ABS=-100)
.MODEL	DZ	D(IS=1E-15 BV=50 T_ABS=-100)
.MODEL  RCOLD	RES T_ABS=-273
.MODEL 	DILIM	D(IS=1E-15)
.MODEL NPN  NPN(BF=8.33e2 )
.MODEL	DP	D(IS=5E-10 BV=700 )
.MODEL	DN	D(IS=5E-10 BV=700 )
.MODEL DCMRP D(IS=1E-15 BV=2)
.MODEL DCMRM D(IS=1E-15 BV=4.6)
.ENDS
* AD704 SPICE Macro-model 9/91, Rev. B
* AAG / PMI
*
* Revision History:
* REV B
* Updated op amp architecture implemented.
*
* Copyright 1991 by Analog Devices, Inc.
*
* Refer to "README.DOC" file for License Statement.  Use of this model
* indicates your acceptance with the terms and provisions in the License Statement.
*
* Node assignments
*             non-inverting input
*             | inverting input
*             | |  positive supply
*             | |  |  negative supply
*             | |  |  |  output
*             | |  |  |  |
.SUBCKT AD704 1 2 99 50 28
*
* INPUT STAGE & POLE AT 3 MHz
*
IOS 1 2 DC 15E-12
CIN 1 2 2E-12
R1 2 3 3.3157E8
R2 1 3 3.3157E8
EOS 9 1 POLY(1) 16 22 30E-6 1
D1 2 9 DX
D2 9 2 DX
Q1 5 2 10 QX
Q2 6 9 11 QX
R3 99 5 530.51
R4 99 6 530.51
C2 5 6 50E-12
R5 10 4 13.314
R6 11 4 13.314
I1 4 50 100E-6
*
* GAIN STAGE & DOMINANT POLE AT 0.45 HZ
*
EREF 98 0 22 0 1
G1 98 12 5 6 1.885E-3
R7 12 98 530.51E6
C3 12 98 666.67E-12
V1 99 13 DC 1.3375
D3 12 13 DX
V2 14 50 DC 1.3375
D4 14 12 DX
*
* COMMON-MODE GAIN NETWORK WITH ZERO AT 500 HZ
*
ECM 15 98 3 22 251.19E-3
RCM1 15 16 1E6
CCM 15 16 318.31E-12
RCM2 16 98 1
*
* ZERO-POLE PAIR AT 165 kHz / 430 kHz
*
GZP1 98 17 12 22 1E-6
RZP1 17 18 1E6
RZP2 18 98 1.6061E6
LZP 18 98 594.45E-3
*
* NEGATIVE ZERO AT -3 MHz
*
ENZ 19 98 17 22 1E6
RNZ1 19 20 1
CNZ 19 20 -53.052E-9
RNZ2 20 98 1E-6
*
* POLE AT 10 MHz
*
G2 98 21 20 22 1E-6
R10 21 98 1E6
C5 21 98 15.915E-15
*
* OUTPUT STAGE
*
IDC 99 50 DC 260E-6
RDC1 99 22 1E6
RDC2 22 50 1E6
DO1 99 23 DX
GO1 23 50 27 21 2E-3
DO2 50 23 DY
DO3 99 24 DX
GO2 24 50 21 27 2E-3 
DO4 50 24 DY
VSC1 25 27 3.15
DSC1 21 25 DX
VSC2 27 26 3.15
DSC2 26 21 DX
GO3 27 99 99 21 2E-3 
GO4 50 27 21 50 2E-3 
RO1 99 27 500
RO2 27 50 500
LO 27 28 265E-9
*
* MODELS USED
*
.MODEL QX NPN(BF=6.25E5)
.MODEL DX D(IS=1E-15)
.MODEL DY D(IS=1E-15 BV=50)
.ENDS
*
* connections:  non-inverting input 
*               |  inverting input  
*               |  |  positive supply
*               |  |  |  negative supply
*               |  |  |  |  output
*               |  |  |  |  |
.SUBCKT AD711A 13 15 12 16 14
* 
VOS 15 8 DC 1E-3
EC 9 0 (14,0) 1
C1 6 7 .5E-12
RP 16 12 9.09E3
GB 11 0 (3,0) 1.67E3
RD1 6 16 16E3
RD2 7 16 16E3
ISS 12 1 DC 100E-6
CCI 3 11 45E-12
GCM 0 3 (0,1) 1.76E-9
GA 3 0 (7,6) 630E-6
RE 1 0 2.5E6
RGM 3 0 2.4E3
VC 12 2 DC 2.6
VE 10 16 DC 3.1
RO1 11 14 25
CE 1 0 2E-12
RO2 0 11 30
RS1 1 4 5.77E3
RS2 1 5 5.77E3
J1 6 13 4 FET
J2 7 8 5 FET
DC 14 2 DIODE
DE 10 14 DIODE
DP 16 12 DIODE
D1 9 11 DIODE
D2 11 9 DIODE
IOS 15 13 12.5E-12
.MODEL DIODE D()
.MODEL FET PJF(VTO=-1 BETA=1E-3 IS=50E-12)
.ENDS AD711A
*
* This version of the AD822 model simulates the worst-case
* parameters of the 'A' grade. The worst-case parameters
* used correspond to those in the data sheet.
*
* Copyright 1995 by Analog Devices, Inc.
*
* Refer to "README.DOC" file for License Statement.
* Use of this model indicates your acceptance with 
* the terms and provisions in the License Statement.
*
* Node assignments
*                non-inverting input
*                | inverting input
*                | | positive supply
*                | | |  negative supply
*                | | |  |  output
*                | | |  |  |
.SUBCKT AD822A   1 2 99 50 25
*
* INPUT STAGE & POLE AT 5MHZ
*
R3 5 99 2456
R4 6 99 2456
CIN 1 2 5E-12
C2 5 6 6.48E-12
I1 4 50 108E-6
IOS 1 2 1E-11
EOS 7 1 POLY(1) (12,98) 800E-6 2.41
J1 5 2 4 JX
J2 6 7 4 JX
GB1 50 2 POLY(3) (2,4) (2,5) (2,50) 0 1E-12 1E-12 1E-12
GB2 50 7 POLY(3) (7,4) (7,5) (7,50) 0 1E-12 1E-12 1E-12
*
EREF 98 0 (30,0) 1
*
* GAIN STAGE & POLE AT 25 HZ
*
R5 9 98 1.234E6
C3 9 25 32E-12
G1 98 9 (6,5) 4.07E-4
V1 8 98 0
V2 98 10 -1
D1 9 10 DX
D2 8 9 DX
*
* COMMON-MODE GAIN NETWORK WITH ZERO AT 5 KHZ
*
R21 11 12 1E6
R22 12 98 200
C14 11 12 32.25E-12
E13 11 98 POLY(2) (2,98) (1,98) 0 0.5 0.5
*
* POLE AT 10 MHZ
*
R23 18 98 1E6
C15 18 98 15.9E-15
G15 98 18 (9,98) 1E-6
*
* OUTPUT STAGE
*
ES 26 51 POLY(1) (18,98) 1.72 1
RS 26 22 500
V3 23 51 1.03951
V4 21 23 1.36
C16 20 25 2E-12
C17 24 25 2E-12
RG1 20 97 1E8
RG2 24 97 1E8
Q1 20 20 97 PNP
Q2 20 21 22 NPN
Q3 24 23 22 PNP
Q4 24 24 51 NPN
Q5 25 20 97 PNP 20
Q6 25 24 51 NPN 20
VP 96 97 0
VN 51 52 0
EP 96 0 POLY(1) (99,0) 0.01 1
EN 52 0 POLY(1) (50,0) -0.015 1
R25 30 99 275E3
R26 30 50 275E3
FSY1 99 0 POLY(1) VP 210.5E-6 1
FSY2 0 50 POLY(1) VN 210.5E-6 1
*
* MODELS USED
*
.MODEL JX NJF(BETA=7.67E-4 VTO=-2.000 IS=12.5E-12)
.MODEL NPN NPN(BF=120 VAF=150 VAR=15 RB=2E3 RE=4 RC=200)
.MODEL PNP PNP(BF=120 VAF=150 VAR=15 RB=2E3 RE=4 RC=900)
.MODEL DX D(IS=1E-15)
.ENDS AD822A
* OrCAD Model Editor - Version 10.1
*  AD8027devel Spice Macro-model           ADI
*John Ardizzoni 
*8027_3/3/04
*  Copyright 2004 by Analog Devices, Inc.
*
* Refer to "README.DOC" file for License Statement.
* Use of this model indicates your acceptance with
* the terms and provisions in the License Statement.
*
* The following parameters are accurately modeled;
*
*    open loop gain and phase vs frequency
*    output clamping voltage and current
*    input common mode range
*    CMRR vs freq
*    I bias vs Vcm in    
*    Slew rate
*    Output currents are reflected to V supplies
*
*    Vos is static and will not vary with Vcm in
*    Step response is modeled at unity gain w/1k load 
*
*    Distortion and noise are not characterized
*
*    Node assignments
*                non-inverting input
*                | inverting input
*                | | positive supply
*                | | |  negative supply
*                | | |  |  output
*                | | |  |  |
.SUBCKT AD8027  1 2 99 50 61  
*.SUBCKT AD8027_21604  1 2 99 50 61   
***** Input bias current source

ecm 20 0 3 97 1 
d1 20 21 dx
d2 23 20 dx
v3 21 22 -0.9
v4 24 23 -0.9
r20 22 0 100
r21 24 0 100
f1 0 25 v3 1 
f2 25 0 v4 1
r22 25 0 1k
d3 25 26 dx
d4 27 25 dx
v5 26 0 .2
v6 0 27 .2
g1 1 0 25 0 3.8e-6
g2 2 0 25 0 3.8e-6

***** Input Stage

R1 1 3 3Meg
R2 3 2 3Meg
C1 1 2 2pf
R3 1 98 40e6
R4 2 98 40e6 
r9 15 7 29.45
r10 16 7 29.45
q1 5 1 15 qn1
q2 6 4 16 qn1
r5 99 5 81.45
r6 99 6 81.45
cp 5 6 4pf
ib3 7 50 1e-3
eos 2 4 poly(1) (1501,98) 0.24e-3 1 
*Vos 2 4 .24e-3
*vos 2 4 0

***** dummy first stage (pnp) for correct bias current

*@@ Wrong sign?, Helmut
*** ib4 81 99 1e-3
ib4 81 99 -1e-3

r11 82 81 1015
r12 83 81 1015
q3 84 1 82 qp1 
q4 85 4 83 qp1
r13 50 84 1515
r14 50 85 1515

***** gain stage/pole at 1000hz/clamp circuitry

g3 99 31 6 5 .012
g4 31 50 5 6 .012
r7 99 31 15.915e6
r8 31 50 15.915e6
c3 99 31 10e-12
c4 31 50 10e-12
*vc1 99 45 -0.85
*vc2 46 50 -0.85

*@@ Sign and value changed
vc1 99 45 +0.85
vc2 46 50 +0.85

dc1 31 45 dx
dc2 46 31 dx

***** pole/zero 6KHz/8KHz

*@@ gain increased from 1u to 2u to achieve full swing
*g100 99 42 31 98 2u
*g101 42 50 98 31 2u

*----- original -----
*r300 99 42 1e6
*r301 42 50 1e6
*R3000 99 3000 3e6
*R3001 50 3001 3e6
*C1000 3000 42 19.89e-12
*C1001 42 3001 19.89e-12
*----- end -----

*@@ 2 clamp diodes added 
*dc10 42 45 dx
*dc20 46 42 dx


****zero/pole 112MHz/300M
*@@ workaround : bypass the stage above, connect to 31 instead of 42
g51 99 331 31 0 1u
g61 331 50 0 31 1u
*g51 99 331 42 0 1u
*g61 331 50 0 42 1u

Rg11 99 341 1.68e6
Rg21 341 331 1e6
Lg11 99 341 .89e-3 
Rg31 351 331 1e6
Rg41 351 50 1.68e6
Lg21 351 50 .89e-3

***** internal reference
rdiv1 99 97 100k
rdiv2 97 50 100k
Eref 98 0 97 0 1
rref 98 0 1e6

****Common mode gain and 10KHz zero network
gcm1 99 105 3 98 2.4e-12
gcm2 105 50 98 3 2.4e-12
l1cm 99 103 10.5
l2cm 106 50 10.5
racm1 103 105 1e6
racm2 105 106 1e6

*****Common Mode gain Zero at 16MHz
gcmz1 99 145 105 98 1u
gcmz2 145 50 98 105 1u
lcmz1 99 140 9.94e-3
lcmz2 141 50 9.94e-3
racmz1 140 145 1e6
racmz2 145 141 1e6

***** Common Mode Gain Pole at 70MHz 

gccm1 99 150 145 98 1u
gccm2 150 50 98 145 1u
rcmpole1 99 150 1e6
rcmpole2 150 50 1e6
cmpole1 99 150 2.27e-15
cmpole2 150 50 2.27e-15

***** Common Mode Pole at 150MHz 

gccm11 99 1501 150 98 1u
gccm21 150 50 98 150 1u
rcmpole11 99 1501 1e6
rcmpole21 1501 50 1e6
cmpole11 99 1501 1.06e-15
cmpole21 1501 50 1.06e-15

***** buffer to output stage

gbuf 98 32 331 98 1e-4
re1 32 98 10k

***** output stage

fo1 98 110 vcd 1
do1 110 111 dx
do2 112 110 dx
vi1 111 98 0
vi2 98 112 0

* Supply current
fsy 99 50 poly(2) vi1 vi2 6.0e-3 1 1

go3 60 99 99 32 50
go4 50 60 32 50 50
r03 60 99 .02
r04 60 50 .02
vcd 60 62 0
lo1 62 61 .01u
*ro1 62 61 .01
ro2 61 98 1e9
do5 32 70 dx
do6 71 32 dx
vo1 70 60 -0.699
vo2 60 71 -0.699

.model dx d(is=1e-15)
.model qn1 npn(bf=91 vaf=100)
.model qp1 pnp(bf=2500 vaf=60)
.ends ad8027
*
*
* The following parameters are accurately modeled;
*
*    open loop gain and phase vs frequency
*    output clamping voltage and current
*    input common mode range
*    CMRR vs freq
*    I bias vs Vcm in    
*    Slew rate
*    Output currents are reflected to V supplies
*
*    Vos is static and will not vary with Vcm in
*    Step response is modeled at unity gain w/1k load 
*
*    Distortion and noise are not characterized
*
*    Node assignments
*                non-inverting input
*                | inverting input
*                | | positive supply
*                | | |  negative supply
*                | | |  |  output
*                | | |  |  |
.SUBCKT AD8028   1 2 99 50 61   

***** Input bias current source

ecm 20 0 3 97 1 
d1 20 21 dx
d2 23 20 dx
v3 21 22 -0.9
v4 24 23 -0.9
r20 22 0 100
r21 24 0 100
f1 0 25 v3 1 
f2 25 0 v4 1
r22 25 0 1k
d3 25 26 dx
d4 27 25 dx
v5 26 0 .2
v6 0 27 .2
g1 1 0 25 0 3.8e-6
g2 2 0 25 0 3.8e-6

***** Input Stage

R1 1 3 3Meg
R2 3 2 3Meg
C1 1 2 2pf
R3 1 98 40e6
R4 2 98 40e6 
r9 15 7 29.45
r10 16 7 29.45
q1 5 1 15 qn1
q2 6 4 16 qn1
r5 99 5 81.45
r6 99 6 81.45
cp 5 6 4pf
ib3 7 50 1e-3
eos 2 4 poly(1) (1501,98) 0.24e-3 1 
*Vos 2 4 .24e-3

***** dummy first stage (pnp) for correct bias current

***ib4 81 99 1e-3
ib4 99 81 1e-3
r11 82 81 1015
r12 83 81 1015
q3 84 1 82 qp1 
q4 85 4 83 qp1
r13 50 84 1515
r14 50 85 1515

***** gain stage/pole at 1000hz/clamp circuitry

g3 99 31 6 5 .012
g4 31 50 5 6 .012
r7 99 31 15.915e6
r8 31 50 15.915e6
c3 99 31 10e-12
c4 31 50 10e-12
vc1 99 45 -0.85
vc2 46 50 -0.85
dc1 31 45 dx
dc2 46 31 dx

***** pole/zero 6KHz/8KHz

g100 99 42 31 98 1u
g101 42 50 98 31 1u
r300 99 42 1e6
r301 42 50 1e6
R3000 99 3000 3E6
R3001 50 3001 3E6
C1000 3000 42 19.89e-12
C1001 42 3001 19.89e-12

****zero/pole 112MHz/300M
g51 99 331 42 0 1u
g61 331 50 0 42 1u
Rg11 99 341 1.68e6
Rg21 341 331 1e6
Lg11 99 341 .89e-3 
Rg31 351 331 1e6
Rg41 351 50 1.68e6
Lg21 351 50 .89e-3

***** internal reference
rdiv1 99 97 100k
rdiv2 97 50 100k
Eref 98 0 97 0 1
rref 98 0 1e6

****Common mode gain and 10KHz zero network
gcm1 99 105 3 98 2.4e-12
gcm2 105 50 98 3 2.4e-12
l1cm 99 103 10.5
l2cm 106 50 10.5
racm1 103 105 1e6
racm2 105 106 1e6

*****Common Mode gain Zero at 16MHz
gcmz1 99 145 105 98 1u
gcmz2 145 50 98 105 1u
lcmz1 99 140 9.94e-3
lcmz2 141 50 9.94e-3
racmz1 140 145 1e6
racmz2 145 141 1e6

***** Common Mode Gain Pole at 70MHz 

gccm1 99 150 145 98 1u
gccm2 150 50 98 145 1u
rcmpole1 99 150 1e6
rcmpole2 150 50 1e6
cmpole1 99 150 2.27e-15
cmpole2 150 50 2.27e-15

***** Common Mode Pole at 150MHz 

gccm11 99 1501 150 98 1u
gccm21 150 50 98 150 1u
rcmpole11 99 1501 1e6
rcmpole21 1501 50 1e6
cmpole11 99 1501 1.06e-15
cmpole21 1501 50 1.06e-15

***** buffer to output stage

gbuf 98 32 331 98 1e-4
re1 32 98 10k

***** output stage

fo1 98 110 vcd 1
do1 110 111 dx
do2 112 110 dx
vi1 111 98 0
vi2 98 112 0

fsy 99 50 poly(2) vi1 vi2 6.0e-3 1 1

go3 60 99 99 32 50
go4 50 60 32 50 50
r03 60 99 .02
r04 60 50 .02
vcd 60 62 0
lo1 62 61 .01u
*ro1 62 61 .01
ro2 61 98 1e9
do5 32 70 dx
do6 71 32 dx
vo1 70 60 -0.699
vo2 60 71 -0.699

.model dx d(is=1e-15)
.model qn1 npn(bf=91 vaf=100)
.model qp1 pnp(bf=2500 vaf=60)
.ends
*
*  AD8032a Spice Macro-model           ADI/SMR 8/96, Rev C
*
*  Copyright 1996 by Analog Devices, Inc.
*
* Refer to "README.DOC" file for License Statement.
* Use of this model indicates your acceptance with
* the terms and provisions in the License Statement.
*
* The following parameters are accurately modeled;
*
*    open loop gain and phase vs frequency
*    output clamping voltage and current
*    input common mode range
*    CMRR vs freq
*    I bias vs Vcm in    
*    Slew rate
*    Output currents are reflected to V supplies
*
*    Vos is static and will not vary with Vcm in
*    Step response is modeled at unity gain w/1k load 
*
*    Distortion and noise are not characterized
*
*    Node assignments
*                non-inverting input
*                | inverting input
*                | | positive supply
*                | | |  negative supply
*                | | |  |  output
*                | | |  |  |
.SUBCKT AD8032a  1 2 99 50 61   

***** Input bias current source

ecm 20 0 3 97 1 
d1 20 21 dx
d2 23 20 dx
v3 21 22 -0.9
v4 24 23 -0.9
r20 22 0 100
r21 24 0 100
f1 0 25 v3 1 
f2 25 0 v4 1
r22 25 0 1k
d3 25 26 dx
d4 27 25 dx
v5 26 0 0.2
v6 0 27 0.3
g1 1 0 25 0 400e-9
g2 2 0 25 0 400e-9

***** Input Stage

R1 1 3 140k
R2 3 2 140k
C1 1 2 1.6pf
R3 1 98 40e6
R4 2 98 40e6 
r9 15 7 1015
r10 16 7 1015
q1 5 1 15 qn1
q2 6 4 16 qn1
r5 99 5 1515
r6 99 6 1515
cp 5 6 0.657p
ib3 7 50 1e-4
eos 2 4 poly(1) (105,98) 0.55e-3 1 
*Vos 2 4 0

***** dummy first stage (pnp) for correct bias current

ib4 81 99 1e-4
r11 82 81 1015
r12 83 81 1015
q3 84 1 82 qp1 
q4 85 4 83 qp1
r13 50 84 1515
r14 50 85 1515

***** gain stage/pole at 3000hz/clamp circuitry

g3 99 31 6 5 .820
g4 31 50 5 6 .820
r7 99 31 16076
r8 31 50 16076
c3 99 31 3.3n
c4 31 50 3.3n

vc1 99 45 0.66
vc2 46 50 1.11
dc1 31 45 dx
dc2 46 31 dx

***** pole 100MHz

g100 99 42 31 0 1u
g101 42 50 0 31 1u
r300 99 42 1e6
r301 42 50 1e6
C300 99 42 1.59f
C301 42 50 1.59f


***** zero/pole 25MHz/60MHz

g5 99 33 42 0 1u
g6 33 50 0 42 1u
Rg1 99 34 1.4e6
Rg2 34 33 1e6 
Rg3 35 33 1e6
Rg4 35 50 1.4e6
Lg1 99 34 3.71m
Lg2 35 50 3.71m

***** internal reference

rdiv1 99 97 100k
rdiv2 97 50 100k
Eref 98 0 97 0 1
rref 98 0 1e6

***** Common mode gain network

gacm1 99 100 3 98 7.94e-13
gacm2 100 50 98 3 7.94e-13
racm1 99 100 1e4
racm2 100 50 1e4

***** Common mode gain network/zero at 2530hz 

ecm1  101 98 100 98 1e6 
racm3 101 102 1e6
racm4 102 103 1
lacm1 103 98 62.9u

***** Common mode gain network/zero at 450hz/pole at 1mhz

ecm2  104 98 102 98 6000
racm5 104 105 6000
racm6 105 106 1
lacm2 106 98 354u

***** buffer to output stage

gbuf 98 32 33 98 1e-4
re1 32 98 10k

***** output stage

fo1 98 110 vcd 1
do1 110 111 dx
do2 112 110 dx
vi1 111 98 0
vi2 98 112 0

fsy 99 50 poly(2) vi1 vi2 5.61e-4 1 1

go3 60 99 99 32 0.5
go4 50 60 32 50 0.5
r03 60 99 2
r04 60 50 2
vcd 60 62 0
lo1 62 61 2u
ro2 61 98 1e9
do5 32 70 dx
do6 71 32 dx
vo1 70 60 -0.642
vo2 60 71 -0.628

.model dx d(is=1e-15)
.model qn1 npn(bf=2500 vaf=100)
.model qp1 pnp(bf=2500 vaf=60)
.ends ad8032a
*
*
* Node assignments
*               	        	non-inverting input
*                	        	 |    inverting input
*               	       	 |    |  	 positive supply
*               	      	 |    |  	 |      negative supply
*               	       	 |    |      |       |    output
*                  	    	 |    |  	 |       |        
* AD8065 Spice Model  Rev. A, 5/14  VC
*
* Refer to "README.DOC" file for License Statement.
* Use of this model indicates your acceptance with
* the terms and provisions in the License Statement.
*
* The following parameters are accurately modeled;
*
*       Open loop gain and phase vs. frequency
*       Output impedance vs. frequency
*       Output clamping voltage and current
*       FET Input common mode range
*       Slew rate
*       Output currents are reflected to V supplies
*       Vos is static and will not vary
*       Distortion is not characterized       
*
*
*    Node assignments
*              non-inverting input
*              | inverting input
*              | | positive supply
*              | | |  negative supply
*              | | |  |  output
*              | | |  |  |
.SUBCKT AD8065 1 2 99 50 30

* FET INPUT STAGE
Vos 9 2 1.5m
Cd 1 2 4.5p
Ccm1 1 0 2.1p
Ccm2 2 0 2.1p
J1 10 1 5 NMOD  
J2 11 9 6 NMOD 
R3 99 5 1132 
R4 99 6 1132
R5 10 4 390
R6 11 4 390
I11 4 50 0.87e-3
