*==============================================
*OPAMP5 pinout: +IN, -IN, +V, -V, OUT
*Copyright (c) 1996 MicroCode Engineering, Inc.
*All Rights Reserved
*
*See other copyright notices at end of file.
*==============================================

*OPAMP5
*IDEAL Sngl OpAmp OpenLoopGain=100k pkg:DIP8 3,2,7,4,6
.SUBCKT OPAMP5 1 2 3 4 5
RIN 3 4 1G
EGAIN 5 0 1 2 1E5
R1 1 2 1k
.ENDS OPAMP5

*====================================================
*LF347
*Quad WideBW JFET OpAmp pkg:DIP14 (A:3,2,4,11,1)(B:5,6,4,11,7)(C:10,9,4,11,8)(D:12,13,4,11,14)
.SUBCKT LF347 1 2 3 4 5
  C1   11 12 3.498E-12
  C2    6  7 15E-12
  DC    5 53 DX
  DE   54  5 DX
  DLP  90 91 DX
  DLN  92 90 DX
  DP    4  3 DX
  BGND 99  0 V=V(3)*.5 + V(4)*.5
  BB    7 99 I=I(VB)*14.15E6 - I(VC)*10E6 + I(VE)*10E6 +
+              I(VLP)*10E6 - I(VLN)*10E6
  GA    6  0 11 12 282.8E-6
  GCM   0  6 10 99 1.59E-9
  ISS   3 10 DC 195.0E-6
  HLIM 90  0 VLIM 1K
  J1   11  2 10 JX
  J2   12  1 10 JX
  R2    6  9 100E3
  RD1   4 11 3.536E3
  RD2   4 12 3.536E3
  RO1   8  5 50
  RO2   7 99 25
  RP    3  4 15E3
  RSS  10 99 1.026E6
  VB    9  0 DC 0
  VC    3 53 DC 2.2
  VE   54  4 DC 2.2
  VLIM  7  8 DC 0
  VLP  91  0 DC 25
  VLN   0 92 DC 25
.MODEL DX D(IS=800E-18)
.MODEL JX PJF(IS=25E-12 BETA=235.1E-6 VTO=-1)
.ENDS LF347

*====================================================
*LF351
*Sngl WideBW JFET OpAmp pkg:DIP8 3,2,7,4,6. pkg:CAN8 3,2,7,4,6.
.SUBCKT LF351 1 2 3 4 5
  C1   11 12 3.498E-12
  C2    6  7 15E-12
  DC    5 53 DX
  DE   54  5 DX
  DLP  90 91 DX
  DLN  92 90 DX
  DP    4  3 DX
  BGND 99  0 V=V(3)*.5 + V(4)*.5
  BB    7 99 I=I(VB)*28.29E6 - I(VC)*30E6 + I(VE)*30E6 +
+              I(VLP)*30E6 - I(VLN)*30E6
  GA    6  0 11 12 282.8E-6
  GCM   0  6 10 99 1.59E-9
  ISS   3 10 DC 195E-6
  HLIM 90  0 VLIM 1K
  J1   11  2 10 JX
  J2   12  1 10 JX
  R2    6  9 100E3
  RD1   4 11 3.536E3
  RD2   4 12 3.536E3
  RO1   8  5 50
  RO2   7 99 25
  RP    3  4 15E3
  RSS  10 99 1.026E6
  VB    9  0 DC 0
  VC    3 53 DC 2.2
  VE   54  4 DC 2.2
  VLIM  7  8 DC 0
  VLP  91  0 DC 30
  VLN   0 92 DC 30
.MODEL DX D(IS=800E-18)
.MODEL JX PJF(IS=12.5E-12 BETA=250.1E-6 VTO=-1)
.ENDS LF351

*====================================================
*LF353
*Dual WideBW JFET OpAmp pkg:DIP8 (A:3,2,8,4,1)(B:5,6,8,4,7)
.SUBCKT LF353 1 2 3 4 5
  C1   11 12 3.498E-12
  C2    6  7 15E-12
  DC    5 53 DX
  DE   54  5 DX
  DLP  90 91 DX
  DLN  92 90 DX
  DP    4  3 DX
  BGND 99  0 V=V(3)*.5 + V(4)*.5
  BB    7 99 I=I(VB)*28.29E6 - I(VC)*30E6 + I(VE)*30E6 +
+              I(VLP)*30E6 - I(VLN)*30E6
  GA    6  0 11 12 282.8E-6
  GCM   0  6 10 99 1.59E-9
  ISS   3 10 DC 195E-6
  HLIM 90  0 VLIM 1K
  J1   11  2 10 JX
  J2   12  1 10 JX
  R2    6  9 100E3
  RD1   4 11 3.536E3
  RD2   4 12 3.536E3
  RO1   8  5 50
  RO2   7 99 11.62
  RP    3  4 15E3
  RSS  10 99 1.026E6
  VB    9  0 DC 0
  VC    3 53 DC 2.2
  VE   54  4 DC 2.2
  VLIM  7  8 DC 0
  VLP  91  0 DC 30
  VLN   0 92 DC 30
.MODEL DX D(IS=800E-18)
.MODEL JX PJF(IS=12.5E-12 BETA=250.1E-6 VTO=-1)
.ENDS LF353

*====================================================
*LF411C
*Sngl LoOffset LoDrift JFET OpAmp pkg:DIP8 3,2,8,4,6. pkg:CAN8 3,2,8,4,6.
.SUBCKT LF411C 1 2 3 4 5
  C1   11 12 3.498E-12
  C2    6  7 15E-12
  DC    5 53 DX
  DE   54  5 DX
  DLP  90 91 DX
  DLN  92 90 DX
  DP    4  3 DX
  BGND 99  0 V=V(3)*.5 + V(4)*.5
  BB    7 99 I=I(VB)*28.29E6 - I(VC)*30E6 + I(VE)*30E6 +
+              I(VLP)*30E6 - I(VLN)*30E6
  GA    6  0 11 12 282.8E-6
  GCM   0  6 10 99 1.59E-9
  ISS   3 10 DC 195E-6
  HLIM 90  0 VLIM 1K
  J1   11  2 10 JX
  J2   12  1 10 JX
  R2    6  9 100E3
  RD1   4 11 3.536E3
  RD2   4 12 3.536E3
  RO1   8  5 50
  RO2   7 99 25
  RP    3  4 15E3
  RSS  10 99 1.026E6
  VB    9  0 DC 0
  VC    3 53 DC 2.2
  VE   54  4 DC 2.2
  VLIM  7  8 DC 0
  VLP  91  0 DC 30
  VLN   0 92 DC 30
.MODEL DX D(IS=800E-18)
.MODEL JX PJF(IS=12.5E-12 BETA=250.1E-6 VTO=-1)
.ENDS LF411C

*====================================================
*LF412C
*Dual LoOffset LoDrift JFET OpAmp pkg:DIP8 (A:3,2,8,4,1)(B:5,6,8,4,7)
.SUBCKT LF412C 1 2 3 4 5
  C1   11 12 3.498E-12
  C2    6  7 15E-12
  DC    5 53 DX
  DE   54  5 DX
  DLP  90 91 DX
  DLN  92 90 DX
  DP    4  3 DX
  BGND 99  0 V=V(3)*.5 + V(4)*.5
  BB    7 99 I=I(VB)*28.29E6 - I(VC)*30E6 + I(VE)*30E6 +
+              I(VLP)*30E6 - I(VLN)*30E6
  GA    6  0 11 12 282.8E-6
  GCM   0  6 10 99 1.59E-9
  ISS   3 10 DC 195E-6
  HLIM 90  0 VLIM 1K
  J1   11  2 10 JX
  J2   12  1 10 JX
  R2    6  9 100E3
  RD1   4 11 3.536E3
  RD2   4 12 3.536E3
  RO1   8  5 50
  RO2   7 99 25
  RP    3  4 15E3
  RSS  10 99 1.026E6
  VB    9  0 DC 0
  VC    3 53 DC 2.2
  VE   54  4 DC 2.2
  VLIM  7  8 DC 0
  VLP  91  0 DC 30
  VLN   0 92 DC 30
.MODEL DX D(IS=800E-18)
.MODEL JX PJF(IS=12.5E-12 BETA=250.1E-6 VTO=-1)
.ENDS LF412C

*====================================================
*LF441 OPERATIONAL AMPLIFIER "MACROMODEL" SUBCIRCUIT
*CONNECTIONS: 1=+In, 2=-In, 3=+V, 4=-V, 5=Out
*MOT Sngl LoPwr JFET OpAmp pkg:DIP8 3,2,7,4,6
.SUBCKT LF441  1 2 3 4 5
  C1   11 12 1.061E-12
  C2    6  7 5.000E-12
  CSS  10 99 4.000E-12
  DC    5 53 DX
  DE   54  5 DX
  DLP  90 91 DX
  DLN  92 90 DX
  DP    4  3 DX
  EGND 99  0 POLY(2) (3,0) (4,0) 0 .5 .5
  FB    7 99 POLY(5) VB VC VE VLP VLN 0 4.775E6 
  + -5E6 5E6 5E6 -5E6
  GA    6  0 11 12 125.7E-6
  GCM   0  6 10 99 6.298E-9
  ISS   3 10 DC 90.00E-6
  HLIM 90  0 VLIM 1K
  J1   11  2 10 JX
  J2   12  1 10 JX
  R2    6  9 100.0E3
  RD1   4 11 7.958E3
  RD2   4 12 7.958E3
  RO1   8  5 200
  RO2   7 99 100
  RP    3  4 285.7E3
  RSS  10 99 2.222E6
  VB    9  0 DC 0
  VC    3 53 DC 1
  VE   54  4 DC 1
  VLIM  7  8 DC 0
  VLP  91  0 DC 10
  VLN   0 92 DC 10
.MODEL DX D(IS=800.0E-18)
.MODEL JX PJF(IS=1.500E-12 BETA=175.5E-6 
+ VTO=-1)
.ENDS LF441
 
*====================================================
*LF442 OPERATIONAL AMPLIFIER "MACROMODEL" SUBCIRCUIT
*CONNECTIONS: 1=+In, 2=-In, 3=+V, 4=-V, 5=Out
*MOT Dual LoPwr JFET OpAmp pkg:DIP8 (A:3,2,8,4,1)(B:5,6,8,4,7)
.SUBCKT LF442  1 2 3 4 5
  C1   11 12 1.061E-12
  C2    6  7 5.000E-12
  CSS  10 99 4.000E-12
  DC    5 53 DX
  DE   54  5 DX
  DLP  90 91 DX
  DLN  92 90 DX
  DP    4  3 DX
  EGND 99  0 POLY(2) (3,0) (4,0) 0 .5 .5
  FB    7 99 POLY(5) VB VC VE VLP VLN 0 4.775E6 
  + -5E6 5E6 5E6 -5E6
  GA    6  0 11 12 125.7E-6
  GCM   0  6 10 99 6.298E-9
  ISS   3 10 DC 90.00E-6
  HLIM 90  0 VLIM 1K
  J1   11  2 10 JX
  J2   12  1 10 JX
  R2    6  9 100.0E3
  RD1   4 11 7.958E3
  RD2   4 12 7.958E3
  RO1   8  5 200
  RO2   7 99 100
  RP    3  4 285.7E3
  RSS  10 99 2.222E6
  VB    9  0 DC 0
  VC    3 53 DC 1
  VE   54  4 DC 1
  VLIM  7  8 DC 0
  VLP  91  0 DC 10
  VLN   0 92 DC 10
.MODEL DX D(IS=800.0E-18)
.MODEL JX PJF(IS=1.500E-12 BETA=175.5E-6 
+ VTO=-1)
.ENDS LF442
 
*====================================================
*LF444 OPERATIONAL AMPLIFIER "MACROMODEL" SUBCIRCUIT
*CONNECTIONS: 1=+In, 2=-In, 3=+V, 4=-V, 5=Out
*MOT Quad LoPwr JFET OpAmp pkg:DIP14 (A:3,2,4,11,1)(B:5,6,4,11,7)(C:10,9,4,11,8)(D:12,13,4,11,14)
.SUBCKT LF444  1 2 3 4 5
  C1   11 12 1.061E-12
  C2    6  7 5.000E-12
  CSS  10 99 4.000E-12
  DC    5 53 DX
  DE   54  5 DX
  DLP  90 91 DX
  DLN  92 90 DX
  DP    4  3 DX
  EGND 99  0 POLY(2) (3,0) (4,0) 0 .5 .5
  FB    7 99 POLY(5) VB VC VE VLP VLN 0 4.775E6 
  + -5E6 5E6 5E6 -5E6
  GA    6  0 11 12 125.7E-6
  GCM   0  6 10 99 6.298E-9
  ISS   3 10 DC 90.00E-6
  HLIM 90  0 VLIM 1K
  J1   11  2 10 JX
  J2   12  1 10 JX
  R2    6  9 100.0E3
  RD1   4 11 7.958E3
  RD2   4 12 7.958E3
  RO1   8  5 200
  RO2   7 99 100
  RP    3  4 285.7E3
  RSS  10 99 2.222E6
  VB    9  0 DC 0
  VC    3 53 DC 1
  VE   54  4 DC 1
  VLIM  7  8 DC 0
  VLP  91  0 DC 10
  VLN   0 92 DC 10
.MODEL DX D(IS=800.0E-18)
.MODEL JX PJF(IS=1.500E-12 BETA=175.5E-6 
+ VTO=-1)
.ENDS LF444
 
*====================================================
*LM11 OPERATIONAL AMPLIFIER  *"MACROMODEL" SUBCIRCUIT
*CONNECTIONS: 1=+In, 2=-In, 3=+V, 4=-V, 5=Out
*MOT Sngl Precision OpAmp pkg:DIP8 3,2,7,4,6
.SUBCKT LM11     1 2 3 4 5
  C1   11 12 12.59E-12
  C2    6  7 28.00E-12
  DC    5 53 DX
  DE   54  5 DX
  DLP  90 91 DX
  DLN  92 90 DX
  DP    4  3 DX
  EGND 99  0 POLY(2) (3,0) (4,0) 0 .5 .5
  FB    7 99 POLY(5) VB VC VE VLP VLN 0 65.29E6 
  +-70E6 70E6 70E6 -70E6
  GA    6  0 11 12 122.5E-6
  GCM   0  6 10 99 38.74E-12
  IEE  10  4 DC 6.900E-6
  HLIM 90  0 VLIM 1K
  Q1   11  2 13 QX
  Q2   12  1 14 QX
  R2    6  9 100.0E3
  RC1   3 11 8.162E3
  RC2   3 12 8.162E3
  RE1  13 10 660.9
  RE2  14 10 660.9
  REE  10 99 28.99E6
  RO1   8  5 41
  RO2   7 99 41
  RP    3  4 102.4E3
  VB    9  0 DC 0
  VC    3 53 DC 2.65
  VE   54  4 DC 2.65
  VLIM  7  8 DC 0
  VLP  91  0 DC 10
  VLN   0 92 DC 10
.MODEL DX D(IS=800.0E-18)
.MODEL QX NPN(IS=800.0E-18 BF=202.9E3)
.ENDS LM11

*====================================================
*LM307
*Sngl GenPurpose OpAmp pkg:DIP8 3,2,7,4,6. pkg:CAN8 3,2,7,4,6.
.SUBCKT LM307 1 2 3 4 5
  C1   11 12 8.887E-12
  C2    6  7 30E-12
  DC    5 53 DX
  DE   54  5 DX
  DLP  90 91 DX
  DLN  92 90 DX
  DP    4  3 DX
  BGND 99  0 V=V(3)*.5 + V(4)*.5
  BB    7 99 I=I(VB)*42.44E6 - I(VC)*40E6 + I(VE)*40E6 +
+              I(VLP)*40E6 - I(VLN)*40E6
  GA    6  0 11 12 188.5E-6
  GCM   0  6 10 99 3.352E-9
  IEE  10  4 DC 15.14E-6
  HLIM 90  0 VLIM 1K
  Q1   11  2 13 QX
  Q2   12  1 14 QX
  R2    6  9 100E3
  RC1   3 11 5.305E3
  RC2   3 12 5.305E3
  RE1  13 10 1.839E3
  RE2  14 10 1.839E3
  REE  10 99 13.21E6
  RO1   8  5 50
  RO2   7 99 25
  RP    3  4 16.81E3
  VB    9  0 DC 0
  VC    3 53 DC 2.6
  VE   54  4 DC 2.6
  VLIM  7  8 DC 0
  VLP  91  0 DC 25
  VLN   0 92 DC 25
.MODEL DX D(IS=800E-18)
.MODEL QX NPN(IS=800E-18 BF=107.1)
.ENDS LM307

*====================================================
*LM318
*Sngl Precision HiSpeed OpAmp pkg:DIP8 3,2,7,4,6. pkg:CAN8 3,2,7,4,6.
.SUBCKT LM318 1 2 3 4 5
  C1   11 12 8.5E-12
  C2    6  7 25E-12
  DC    5 53 DX
  DE   54  5 DX
  DLP  90 91 DX
  DLN  92 90 DX
  DP    4  3 DX
  BGND 99  0 V=V(3)*.5 + V(4)*.5
  BB    7 99 I=I(VB)*1.697E6 - I(VC)*2E6 + I(VE)*2E6 +
+              I(VLP)*2E6 - I(VLN)*2E6
  GA    6  0 11 12 2.474E-3
  GCM   0  6 10 99 13.25E-9
  IEE  10  4 DC 1.75E-3
  HLIM 90  0 VLIM 1K
  Q1   11  2 13 QX
  Q2   12  1 14 QX
  R2    6  9 100E3
  RC1   3 11 424.4
  RC2   3 12 424.4
  RE1  13 10 394.7
  RE2  14 10 394.7
  REE  10 99 114.3E3
  RO1   8  5 50
  RO2   7 99 50
  RP    3  4 9.231E3
  VB    9  0 DC 0
  VC    3 53 DC 2.7
  VE   54  4 DC 2.7
  VLIM  7  8 DC 0
  VLP  91  0 DC 21
  VLN   0 92 DC 21
.MODEL DX D(IS=800E-18)
.MODEL QX NPN(IS=800E-18 BF=5.833E3)
.ENDS LM318

*====================================================
*LM324
*Quad LoPwr SnglSup OpAmp pkg:DIP14 (A:3,2,4,11,1)(B:5,6,4,11,7)(C:10,9,4,11,8)(D:12,13,4,11,14)
.SUBCKT LM324 1 2 3 4 5
  C1   11 12 5.544E-12
  C2    6  7 20E-12
  DC    5 53 DX
  DE   54  5 DX
  DLP  90 91 DX
  DLN  92 90 DX
  DP    4  3 DX
  BGND 99  0 V=V(3)*.5 + V(4)*.5
  BB    7 99 I=I(VB)*15.91E6 - I(VC)*20E6 + I(VE)*20E6 +
+              I(VLP)*20E6 - I(VLN)*20E6
  GA    6  0 11 12 125.7E-6
  GCM   0  6 10 99 7.067E-9
  IEE   3 10 DC 10.04E-6
  HLIM 90  0 VLIM 1K
  Q1   11  2 13 QX
  Q2   12  1 14 QX
  R2    6  9 100E3
  RC1   4 11 7.957E3
  RC2   4 12 7.957E3
  RE1  13 10 2.773E3
  RE2  14 10 2.773E3
  REE  10 99 19.92E6
  RO1   8  5 50
  RO2   7 99 50
  RP    3  4 30.31E3
  VB    9  0 DC 0
  VC    3 53 DC 2.1
  VE   54  4 DC .6
  VLIM  7  8 DC 0
  VLP  91  0 DC 40
  VLN   0 92 DC 40
.MODEL DX D(IS=800E-18)
.MODEL QX PNP(IS=800E-18 BF=250)
.ENDS LM324

*====================================================
*LM348
*Quad 741 OpAmp pkg:DIP14 (A:3,2,4,11,1)(B:5,6,4,11,7)(C:10,9,4,11,8)(D:12,13,4,11,14)
.SUBCKT LM348 1 2 3 4 5
  C1   11 12 9.461E-12
  C2    6  7 30E-12
  DC    5 53 DX
  DE   54  5 DX
  DLP  90 91 DX
  DLN  92 90 DX
  DP    4  3 DX
  BGND 99  0 V=V(3)*.5 + V(4)*.5
  BB    7 99 I=I(VB)*4.715E6 - I(VC)*5E6 + I(VE)*5E6 +
+              I(VLP)*5E6 - I(VLN)*5E6
  GA    6  0 11 12 256.2E-6
  GCM   0  6 10 99 4.023E-9
  IEE  10  4 DC 15.06E-6
  HLIM 90  0 VLIM 1K
  Q1   11  2 13 QX
  Q2   12  1 14 QX
  R2    6  9 100E3
  RC1   3 11 4.42E3
  RC2   3 12 4.42E3
  RE1  13 10 968
  RE2  14 10 968
  REE  10 99 13.28E6
  RO1   8  5 150
  RO2   7 99 150
  RP    3  4 51.28E3
  VB    9  0 DC 0
  VC    3 53 DC 3.6
  VE   54  4 DC 3.6
  VLIM  7  8 DC 0
  VLP  91  0 DC 25
  VLN   0 92 DC 25
.MODEL DX D(IS=800E-18)
.MODEL QX NPN(IS=800E-18 BF=250)
.ENDS LM348

*====================================================
*LM358
*Dual LoPwr, HiGain, SnglSup OpAmp pkg:DIP8 (A:3,2,8,4,1)(B:5,6,8,4,7)
.SUBCKT LM358   1 2 3 4 5
C1   11 12 5.544E-12
C2    6  7 20.00E-12
DC    5 53 DX
DE   54  5 DX
DLP  90 91 DX
DLN  92 90 DX
DP    4  3 DX
EGND 99  0 POLY(2) 3 0 4 0 0 .5 .5
FB    7 99 POLY(5) VB VC VE VLP VLN 0 15.91E6 -20E6 20E6 20E6 -20E6
GA    6  0 11 12 125.7E-6
GCM   0  6 10 99 7.067E-9
IEE   3 10 DC 10.04E-6
HLIM 90  0 VLIM 1K
Q1   11  2 13 QX
Q2   12  1 14 QX
R2    6  9 100.0E3
RC1   4 11 7.957E3
RC2   4 12 7.957E3
RE1  13 10 2.773E3
RE2  14 10 2.773E3
REE  10 99 19.92E6
RO1   8  5 50
RO2   7 99 50
RP    3  4 30.31E3
VB    9  0 DC 0
VC 3 53 DC 2.100
VE   54  4 DC .6
VLIM  7  8 DC 0
VLP  91  0 DC 40
VLN   0 92 DC 40
.MODEL DX D(IS=800.0E-18)
.MODEL QX PNP(IS=800.0E-18 BF=250)
.ENDS LM358

*====================================================
*LM833 OPERATIONAL AMPLIFIER "MACROMODEL" SUBCIRCUIT
*CONNECTIONS: 1=+In, 2=-In, 3=+V, 4=-V, 5=Out
*MOT Dual LoNoise Audio OpAmp pkg:DIP8 (A:3,2,8,4,1)(B:5,6,8,4,7)
.SUBCKT LM833  1 2 3 4 5
  C1   11 12 3.501E-12
  C2    6  7 10.00E-12
  DC    5 53 DX
  DE   54  5 DX
  DLP  90 91 DX
  DLN  92 90 DX
  DP    4  3 DX
  EGND 99  0 POLY(2) (3,0) (4,0) 0 .5 .5
  FB    7 99 POLY(5) VB VC VE VLP VLN 0 27.96E6 
  + -30E6 30E6 30E6 -30E6
  GA    6  0 11 12 565.5E-6
  GCM   0  6 10 99 5.655E-9
  ISS  10  4 DC 70.00E-6
  HLIM 90  0 VLIM 1K
  J1   11  2 10 JX
  J2   12  1 10 JX
  R2    6  9 100.0E3
  RD1   3 11 1.768E3
  RD2   3 12 1.768E3
  RO1   8  5 10
  RO2   7 99 20
  RP    3  4 29.03E3
  RSS  10 99 2.857E6
  VB    9  0 DC 0
  VC    3 53 DC .9
  VE   54  4 DC .4
  VLIM  7  8 DC 0
  VLP  91  0 DC 30
  VLN   0 92 DC 30
.MODEL DX D(IS=800.0E-18)
.MODEL JX NJF(IS=150.0E-9 BETA=4.568E-3 
+ VTO=-1)
.ENDS LM833
 
*====================================================
*LM2902
*Quad LoPwr SnglSup OpAmp pkg:DIP14 (A:3,2,4,11,1)(B:5,6,4,11,7)(C:10,9,4,11,8)(D:12,13,4,11,14)
.SUBCKT LM2902  1 2 3 4 5
C1   11 12 2.000E-12
C2    6  7 6.000E-12
CEE  10 99 388.6E-15
DC    5 53 DX
DE   54  5 DX
DLP  90 91 DX
DLN  92 90 DX
DP    4  3 DX
BEGND 99 0 V=0.5*V(3)+0.5*V(4)
BFB 7 99 I=4.823E+7*I(VB)-5E+7*I(VC)+5E+7*I(VE)+5E+7*I(VLP)-5E+7*I(VLN)
GA    6  0 11 12 41.47E-6
GCM   0  6 10 99 414.7E-12
IEE   3 10 DC 2.543E-6
HLIM 90  0 VLIM 1K
Q1   11  2 13 QX
Q2   12  1 14 QX
R2    6  9 100.0E3
RC1   4 11 24.11E3
RC2   4 12 24.11E3
RE1  13 10 3.043E3
RE2  14 10 3.043E3
REE  10 99 78.65E6
RO1   8  5 50
RO2   7 99 25
RP    3  4 37.62E3
VB    9  0 DC 0
VC    3 53 DC 1.800
VE   54  4 DC .88
VLIM  7  8 DC 0
VLP  91  0 DC 40
VLN   0 92 DC 40
.MODEL DX D(IS=800.0E-18)
.MODEL QX PNP(IS=800.0E-18 BF=32.03)
.ENDS LM2902

*====================================================
*LM2904 OPERATIONAL AMPLIFIER "MACROMODEL" SUBCIRCUIT
*CONNECTIONS: 1=+In, 2=-In, 3=+V, 4=-V, 5=Out
*MOT OpAmp
.SUBCKT LM2904  1 2 3 4 5
  C1   11 12 3.000E-12
  C2    6  7 6.000E-12
  CEE  10 99 388.6E-15
  DC    5 53 DX
  DE   54  5 DX
  DLP  90 91 DX
  DLN  92 90 DX
  DP    4  3 DX
  EGND 99  0 POLY(2) (3,0) (4,0) 0 .5 .5
  FB    7 99 POLY(5) VB VC VE VLP VLN 0 48.23E6 
  + -50E6 50E6 50E6 -50E6
  GA    6  0 11 12 41.47E-6
  GCM   0  6 10 99 414.7E-12
  IEE   3 10 DC 2.543E-6
  HLIM 90  0 VLIM 1K
  Q1   11  2 13 QX
  Q2   12  1 14 QX
  R2    6  9 100.0E3
  RC1   4 11 24.11E3
  RC2   4 12 24.11E3
  RE1  13 10 3.043E3
  RE2  14 10 3.043E3
  REE  10 99 78.65E6
  RO1   8  5 50
  RO2   7 99 25
  RP    3  4 37.62E3
  VB    9  0 DC 0
  VC    3 53 DC 1.800
  VE   54  4 DC .88
  VLIM  7  8 DC 0
  VLP  91  0 DC 40
  VLN   0 92 DC 40
  DESD1  1  3 DX
  DESD2  2  3 DX
.MODEL DX D(IS=800.0E-18)
.MODEL QX PNP(IS=800.0E-18 BF=32.03)
.ENDS LM2904

*====================================================
*LM3900 MCE-DM 2-22-95
*Quad SnglSup OpAmp pkg:DIP14 (A:1,6,14,7,5)(B:2,3,14,7,4)(C:13,8,14,7,9)(D:12,11,14,7,10)
.SUBCKT LM3900 4 3 7 10 9
Is1 9 10 1.3mA
Is2 7 5 200uA
Q1 7 5 9 NMOD
Q2 6 3 10 NMOD
Q3 3 4 10 NMOD
Q4 8 6 5 PMOD
Q5 10 6 8 PMOD
D1 4 0 DMOD
C1 10 6 0.01uF
.MODEL DMOD D(IS=800E-18)
.MODEL PMOD PNP(IS=800E-18 BF=250)
.MODEL NMOD NPN(IS=800E-18 BF=250)
.ENDS LM3900

*====================================================
*MC1458
*Dual 741 OpAmp pkg:DIP8 (A:3,2,8,4,1)(B:5,6,8,4,7)
.SUBCKT MC1458 1 2 3 4 5
  C1   11 12 4.664E-12
  C2    6  7 20E-12
  DC    5 53 DX
  DE   54  5 DX
  DLP  90 91 DX
  DLN  92 90 DX
  DP    4  3 DX
  BGND 99  0 V=V(3)*.5 + V(4)*.5
  BB    7 99 I=I(VB)*10.61E6 - I(VC)*10E6 + I(VE)*10E6 +
+              I(VLP)*10E6 - I(VLN)*10E6
  GA    6  0 11 12 137.7E-6
  GCM   0  6 10 99 2.574E-9
  IEE  10  4 DC 10.16E-6
  HLIM 90  0 VLIM 1K
  Q1   11  2 13 QX
  Q2   12  1 14 QX
  R2    6  9 100E3
  RC1   3 11 7.957E3
  RC2   3 12 7.957E3
  RE1  13 10 2.74E3
  RE2  14 10 2.74E3
  REE  10 99 19.69E6
  RO1   8  5 150
  RO2   7 99 150
  RP    3  4 18.11E3
  VB    9  0 DC 0
  VC    3 53 DC 2.6
  VE   54  4 DC 2.6
  VLIM  7  8 DC 0
  VLP  91  0 DC 25
  VLN   0 92 DC 25
.MODEL DX D(IS=800E-18)
.MODEL QX NPN(IS=800E-18 BF=62.5)
.ENDS MC1458

*====================================================
*MC1536 OPERATIONAL AMPLIFIER "MACROMODEL" SUBCIRCUIT
*CONNECTIONS: 1=+In, 2=-In, 3=+V, 4=-V, 5=Out
*MOT OpAmp
.SUBCKT MC1536  1 2 3 4 5
  C1   11 12 18.00E-12
  C2    6  7 28.50E-12
  DC    5 53 DX
  DE   54  5 DX
  DLP  90 91 DX
  DLN  92 90 DX
  DP    4  3 DX
  EGND 99  0 POLY(2) (3,0) (4,0) 0 .5 .5
  FB    7 99 POLY(5) VB VC VE VLP VLN 0 2.653E6 
  +-3E6 3E6 3E6 -3E6
  GA    6  0 11 12 377.0E-6
  GCM   0  6 10 99 1.192E-9
  IEE  10  4 DC 60.02E-6
  HLIM 90  0 VLIM 1K
  Q1   11  2 13 QX
  Q2   12  1 14 QX
  R2    6  9 100.0E3
  RC1   3 11 2.653E3
  RC2   3 12 2.653E3
  RE1  13 10 1.790E3
  RE2  14 10 1.790E3
  REE  10 99 3.332E6
  RO1   8  5 500
  RO2   7 99 500
  RP    3  4 26.17E3
  VB    9  0 DC 0
  VC    3 53 DC 5.740
  VE   54  4 DC 5.740
  VLIM  7  8 DC 0
  VLP  91  0 DC 17
  VLN   0 92 DC 17
.MODEL DX D(IS=800.0E-18)
.MODEL QX NPN(IS=800.0E-18 BF=3.750E3)
.ENDS MC1536
 
*====================================================
*MC1747 OPERATIONAL AMPLIFIER "MACROMODEL" SUBCIRCUIT
*CONNECTIONS: 1=+In, 2=-In, 3=+V, 4=-V, 5=Out
*MOT OpAmp
.SUBCKT MC1747   1 2 3 4 5
  C1   11 12 10.50E-12
  C2    6  7 31.00E-12
  DC    5 53 DX
  DE   54  5 DX
  DLP  90 91 DX
  DLN  92 90 DX
  DP    4  3 DX
  EGND 99  0 POLY(2) (3,0) (4,0) 0 .5 .5
  FB    7 99 POLY(5) VB VC VE VLP VLN 0 23.81E6 -20E6 20E6 20E6 -20E6
  GA    6  0 11 12 224.0E-6
  GCM   0  6 10 99 7.083E-9
  IEE  10  4 DC 15.66E-6
  HLIM 90  0 VLIM 1K
  Q1   11  2 13 QX
  Q2   12  1 14 QX
  R2    6  9 100.0E3
  RC1   3 11 4.464E3
  RC2   3 12 4.464E3
  RE1  13 10 1.116E3
  RE2  14 10 1.116E3
  REE  10 99 12.77E6
  RO1   8  5 37.50
  RO2   7 99 37.50
  RP    3  4 18.17E3
  VB    9  0 DC 0
  VC    3 53 DC 2.6
  VE   54  4 DC 2.6
  VLIM  7  8 DC 0
  VLP  91  0 DC 25
  VLN   0 92 DC 25
.MODEL DX D(IS=800.0E-18)
.MODEL QX NPN(IS=800.0E-18 BF=96.87)
.ENDS MC1747

*====================================================
*MC3403
*Quad LoPwr SnglSup OpAmp pkg:DIP14 (A:3,2,4,11,1)(B:5,6,4,11,7)(C:10,9,4,11,8)(D:12,13,4,11,14)
.SUBCKT MC3403 1 2 3 4 5
  C1   11 12 7.544E-12
  C2    6  7 20E-12
  DC    5 53 DX
  DE   54  5 DX
  DLP  90 91 DX
  DLN  92 90 DX
  DP    4  3 DX
  BGND 99  0 V=V(3)*.5 + V(4)*.5
  BB    7 99 I=I(VB)*42.44E6 - I(VC)*40E6 + I(VE)*40E6 +
+              I(VLP)*40E6 - I(VLN)*40E6
  GA    6  0 11 12 130.7E-6
  GCM   0  6 10 99 2.235E-9
  IEE   3 10 DC 12.4E-6
  HLIM 90  0 VLIM 1K
  Q1   11  2 13 QX
  Q2   12  1 14 QX
  R2    6  9 100E3
  RC1   4 11 7.957E3
  RC2   4 12 7.957E3
  RE1  13 10 3.529E3
  RE2  14 10 3.529E3
  REE  10 99 16.13E6
  RO1   8  5 37.5
  RO2   7 99 37.5
  RP    3  4 43.62E3
  VB    9  0 DC 0
  VC    3 53 DC 2.6
  VE   54  4 DC 2.6
  VLIM  7  8 DC 0
  VLP  91  0 DC 30
  VLN   0 92 DC 30
.MODEL DX D(IS=800E-18)
.MODEL QX PNP(IS=800E-18 BF=30)
.ENDS MC3403

*====================================================
*MC3458 OPERATIONAL AMPLIFIER "MACROMODEL" SUBCIRCUIT
*CONNECTIONS: 1=+In, 2=-In, 3=+V, 4=-V, 5=Out
*MOT Dual LoPwr OpAmp pkg:DIP8 (A:3,2,8,4,1)(B:5,6,8,4,7)
.SUBCKT MC3458   1 2 3 4 5
  C1   11 12 5.750E-12
  C2    6  7 12.50E-12
  DC    5 53 DX
  DE   54  5 DX
  DLP  90 91 DX
  DLN  92 90 DX
  DP    4  3 DX
  EGND 99  0 POLY(2) (3,0) (4,0) 0 .5 .5
  FB    7 99 POLY(5) VB VC VE VLP VLN 0 45.39E6
  + -50E6 50E6 50E6 -50E6
  GA    6  0 11 12 117.5E-6
  GCM   0  6 10 99 3.716E-9
  IEE   3 10 DC 7.000E-6
  HLIM 90  0 VLIM 1K
  Q1   11  2 13 QX
  Q2   12  1 14 QX
  R2    6  9 100.0E3
  RC1   4 11 8.511E3
  RC2   4 12 8.511E3
  RE1  13 10 634.9
  RE2  14 10 634.9
  REE  10 99 28.57E6
  RO1   8  5 37.50
  RO2   7 99 37.50
  RP    3  4 18.83E3
  VB    9  0 DC 0
  VC    3 53 DC 2.740
  VE   54  4 DC 2.740
  VLIM  7  8 DC 0
  VLP  91  0 DC 20
  VLN   0 92 DC 20
.MODEL DX D(IS=800.0E-18)
.MODEL QX PNP(IS=800.0E-18 BF=16.50)
.ENDS MC3458
 
*====================================================
*MC4558 OPERATIONAL AMPLIFIER "MACROMODEL" SUBCIRCUIT
*CONNECTIONS: 1=+In, 2=-In, 3=+V, 4=-V, 5=Out
*MOT Dual WideBW OpAmp pkg:DIP8 (A:3,2,8,4,1)(B:5,6,8,4,7)
.SUBCKT MC4558   1 2 3 4 5
  C1   11 12 4.201E-12
  C2    6  7 13.00E-12
  DC    5 53 DX
  DE   54  5 DX
  DLP  90 91 DX
  DLN  92 90 DX
  DP    4  3 DX
  EGND 99  0 POLY(2) (3,0) (4,0) 0 .5 .5
  FB    7 99 POLY(5) VB VC VE VLP VLN 0 16.58E6
  + -20E6 20E6 20E6 -20E6
  GA    6  0 11 12 301.6E-6
  GCM   0  6 10 99 9.537E-9
  IEE   3 10 DC 19.68E-6
  HLIM 90  0 VLIM 1K
  Q1   11  2 13 QX
  Q2   12  1 14 QX
  R2    6  9 100.0E3
  RC1   4 11 3.316E3
  RC2   4 12 3.316E3
  RE1  13 10 615.9
  RE2  14 10 615.9
  REE  10 99 10.32E6
  RO1   8  5 40
  RO2   7 99 40
  RP    3  4 13.15E3
  VB    9  0 DC 0
  VC    3 53 DC 2.600
  VE   54  4 DC 2.600
  VLIM  7  8 DC 0
  VLP  91  0 DC 20
  VLN   0 92 DC 20
.MODEL DX D(IS=800.0E-18)
.MODEL QX PNP(IS=800.0E-18 BF=109.1)
.ENDS MC4558

*====================================================
*MC4741 OPERATIONAL AMPLIFIER "MACROMODEL" SUBCIRCUIT
*CONNECTIONS: 1=+In, 2=-In, 3=+V, 4=-V, 5=Out
*MOT Quad 741 OpAmp pkg:DIP14 (A:3,2,4,11,1)(B:5,6,4,11,7)(C:10,9,4,11,8)(D:12,13,4,11,14)
.SUBCKT MC4741   1 2 3 4 5
*
  C1   11 12 10.50E-12
  C2    6  7 31.00E-12
  DC    5 53 DX
  DE   54  5 DX
  DLP  90 91 DX
  DLN  92 90 DX
  DP    4  3 DX
  EGND 99  0 POLY(2) (3,0) (4,0) 0 .5 .5
  FB    7 99 POLY(5) VB VC VE VLP VLN 0 24.60E6 -20E6 20E6 20E6 -20E6
  GA    6  0 11 12 216.8E-6
  GCM   0  6 10 99 6.855E-9
  IEE  10  4 DC 15.16E-6
  HLIM 90  0 VLIM 1K
  Q1   11  2 13 QX
  Q2   12  1 14 QX
  R2    6  9 100.0E3
  RC1   3 11 4.613E3
  RC2   3 12 4.613E3
  RE1  13 10 1.152E3
  RE2  14 10 1.152E3
  REE  10 99 13.19E6
  RO1   8  5 37.50
  RO2   7 99 37.50
  RP    3  4 12.94E3
  VB    9  0 DC 0
  VC    3 53 DC 2.6
  VE   54  4 DC 2.6
  VLIM  7  8 DC 0
  VLP  91  0 DC 20
  VLN   0 92 DC 20
.MODEL DX D(IS=800.0E-18)
.MODEL QX NPN(IS=800.0E-18 BF=93.75)
.ENDS MC4741
 
*====================================================
*MC33071 OPERATIONAL AMPLIFIER "MACROMODEL" SUBCIRCUIT
*CONNECTIONS: 1=+In, 2=-In, 3=+V, 4=-V, 5=Out
*MOT Sngl OpAmp pkg:DIP8 3,2,7,4,6
.SUBCKT MC33071  1 2 3 4 5
  C1   11 12 8.660E-12
  C2    6  7 8.000E-12
  CEE  10 99 1.231E-12
  DC    5 53 DX
  DE   54  5 DX
  DLP  90 91 DX
  DLN  92 90 DX
  DP    4  3 DX
  EGND 99  0 POLY(2) (3,0) (4,0) 0 .5 .5
  FB    7 99 POLY(5) VB VC VE VLP VLN 0 8.842E6 
  + -9E6 9E6 9E6 -9E6
  GA    6  0 11 12 251.3E-6
  GCM   0  6 10 99 3.550E-9
  IEE   3 10 DC 120.2E-6
  HLIM 90  0 VLIM 1K
  Q1   11  2 13 QX
  Q2   12  1 14 QX
  R2    6  9 100.0E3
  RC1   4 11 3.979E3
  RC2   4 12 3.979E3
  RE1  13 10 3.542E3
  RE2  14 10 3.542E3
  REE  10 99 1.664E6
  RO1   8  5 30
  RO2   7 99 45
  RP    3  4 34.09E3
  VB    9  0 DC 0
  VC    3 53 DC 1
  VE   54  4 DC .3
  VLIM  7  8 DC 0
  VLP  91  0 DC 30
  VLN   0 92 DC 30
.MODEL DX D(IS=800.0E-18)
.MODEL QX PNP(IS=800.0E-18 BF=600)
.ENDS MC33071
 
*====================================================
*MC33072 OPERATIONAL AMPLIFIER "MACROMODEL" SUBCIRCUIT
*CREATED USING PARTS RELEASE 4.05
*CONNECTIONS: 1=+In, 2=-In, 3=+V, 4=-V, 5=Out
*MOT Sngl OpAmp pkg:DIP8 (A:3,2,8,4,1)(B:5,6,8,4,7)
.SUBCKT MC33072  1 2 3 4 5
  C1   11 12 8.660E-12
  C2    6  7 8.000E-12
  CEE  10 99 1.231E-12
  DC    5 53 DX
  DE   54  5 DX
  DLP  90 91 DX
  DLN  92 90 DX
  DP    4  3 DX
  EGND 99  0 POLY(2) (3,0) (4,0) 0 .5 .5
  FB    7 99 POLY(5) VB VC VE VLP VLN 0 8.842E6 
  + -9E6 9E6 9E6 -9E6
  GA    6  0 11 12 251.3E-6
  GCM   0  6 10 99 3.550E-9
  IEE   3 10 DC 120.2E-6
  HLIM 90  0 VLIM 1K
  Q1   11  2 13 QX
  Q2   12  1 14 QX
  R2    6  9 100.0E3
  RC1   4 11 3.979E3
  RC2   4 12 3.979E3
  RE1  13 10 3.542E3
  RE2  14 10 3.542E3
  REE  10 99 1.664E6
  RO1   8  5 30
  RO2   7 99 45
  RP    3  4 34.09E3
  VB    9  0 DC 0
  VC    3 53 DC 1
  VE   54  4 DC .3
  VLIM  7  8 DC 0
  VLP  91  0 DC 30
  VLN   0 92 DC 30
  DESD1 1  3 DX
  DESD2 2  3 DX
.MODEL DX D(IS=800.0E-18)
.MODEL QX PNP(IS=800.0E-18 BF=600)
.ENDS MC33072
 
*====================================================
*MC33074 OPERATIONAL AMPLIFIER "MACROMODEL" SUBCIRCUIT
*CONNECTIONS: 1=+In, 2=-In, 3=+V, 4=-V, 5=Out
*MOT Quad OpAmp pkg:DIP14 (A:3,2,4,11,1)(B:5,6,4,11,7)(C:10,9,4,11,8)(D:12,13,4,11,14)
.SUBCKT MC33074  1 2 3 4 5
  C1   11 12 8.660E-12
  C2    6  7 8.000E-12
  CEE  10 99 1.231E-12
  DC    5 53 DX
  DE   54  5 DX
  DLP  90 91 DX
  DLN  92 90 DX
  DP    4  3 DX
  EGND 99  0 POLY(2) (3,0) (4,0) 0 .5 .5
  FB    7 99 POLY(5) VB VC VE VLP VLN 0 8.842E6 
  + -9E6 9E6 9E6 -9E6
  GA    6  0 11 12 251.3E-6
  GCM   0  6 10 99 3.550E-9
  IEE   3 10 DC 120.2E-6
  HLIM 90  0 VLIM 1K
  Q1   11  2 13 QX
  Q2   12  1 14 QX
  R2    6  9 100.0E3
  RC1   4 11 3.979E3
  RC2   4 12 3.979E3
  RE1  13 10 3.542E3
  RE2  14 10 3.542E3
  REE  10 99 1.664E6
  RO1   8  5 30
  RO2   7 99 45
  RP    3  4 34.09E3
  VB    9  0 DC 0
  VC    3 53 DC 1
  VE   54  4 DC .3
  VLIM  7  8 DC 0
  VLP  91  0 DC 30
  VLN   0 92 DC 30
  DESD1 1  3 DX
  DESD2 2  3 DX
.MODEL DX D(IS=800.0E-18)
.MODEL QX PNP(IS=800.0E-18 BF=600)
.ENDS MC33074
 
*====================================================
*MC33076 OPERATIONAL AMPLIFIER "MACROMODEL" SUBCIRCUIT
*CONNECTIONS: 1=+In, 2=-In, 3=+V, 4=-V, 5=Out
*MOT Dual HiIout LoPwr LoNoise OpAmp pkg:DIP8 (A:3,2,8,4,1)(B:5,6,8,4,7)
.SUBCKT MC33076  1 2 3 4 5
  C1   11 12 30.302E-12
  C2    6  7 18.00E-12
  DC  500 53 DX
  DE   54  500 DX
  DLP  90 91 DX
  DLN  92 90 DX
  DP    4  3 DX
  EGND 99  0 POLY(2) (3,0) (4,0) 0 .5 .5
  FB    7 99 POLY(5) VB VC VE VLP VLN 0 20.21E6 
  + -20E6 20E6 20E6 -20E6
  GA    6  0 11 12 395.8E-6
  GCM   0  6 10 99 627.4E-12
  IEE  10  4 DC 47.16E-6
  HLIM 90  0 VLIM 1K
  Q1   11  2 13 QX
  Q2   12  1 14 QX
  R2    6  9 100.0E3
  RC1   3 11 2.526E3
  RC2   3 12 2.526E3
  RE1  13 10 1.410E3
  RE2  14 10 1.410E3
  REE  10 99 4.241E6
  RO1   8  500 25
  RO2   7 99 25
  RP    3  4 13.93E3
  VB    9  0 DC 0
  VC    3 53 DC .92
  VE   54  4 DC .86
  VLIM  7  8 DC 0
  VLP  91  0 DC 250
  VLN   0 92 DC 250
  EVCS1  800  500  8  500 1.0
  EVCS2  500  820  810  500 1.0
  RVS1   800  810  75
  CVS    810  500  500P
  RVS2   820   5   50
  DESD1  1  3 DX
  DESD2  2  3 DX
.MODEL DX D(IS=800.0E-18)
.MODEL QX NPN(IS=800.0E-18 BF=130)
.ENDS MC33076
 
*====================================================
*MC33077 OPERATIONAL AMPLIFIER "MACROMODEL" SUBCIRCUIT
*CONNECTIONS: 1=+In, 2=-In, 3=+V, 4=-V, 5=Out
*MOT Dual LoNoise OpAmp pkg:DIP8 (A:3,2,8,4,1)(B:5,6,8,4,7)
.SUBCKT MC33077  1 2 3 4 5
  C1   11 12 3.851E-12
  C2    6  7 9.50E-12
  DC    5 53 DX
  DE   54  5 DX
  DLP  90 91 DX
  DLN  92 90 DX
  DP    4  3 DX
  EGND 99  0 POLY(2) (3,0) (4,0) 0 .5 .5
  FB    7 99 POLY(5) VB VC VE VLP VLN 0 42.87E6
  + -40E6 40E6 40E6 -40E6
  GA    6  0 11 12 541.9E-6
  GCM   0  6 10 99 2.421E-9
  IEE   3 10 DC 104.1E-6
  HLIM 90  0 VLIM 1K
  Q1   11  2 13 QX
  Q2   12  1 14 QX
  R2    6  9 100.0E3
  RC1   4 11 1.845E3
  RC2   4 12 1.845E3
  RE1  13 10 1.338E3
  RE2  14 10 1.338E3
  REE  10 99 1.922E6
  RO1   8  5 18
  RO2   7 99 18
  RP    3  4 8.833E3
  VB    9  0 DC 0
  VC    3 53 DC 2.0
  VE   54  4 DC 1.5
  VLIM  7  8 DC 0
  VLP  91  0 DC 30
  VLN   0 92 DC 30
.MODEL DX D(IS=800.0E-18)
.MODEL QX PNP(IS=800.0E-18 BF=178.4)
.ENDS MC33077
 
*====================================================
*MC33078 OPERATIONAL AMPLIFIER "MACROMODEL" SUBCIRCUIT
*CONNECTIONS: 1=+In, 2=-In, 3=+V, 4=-V, 5=Out
*MOT Dual LoNoise OpAmp pkg:DIP8 (A:3,2,8,4,1)(B:5,6,8,4,7)