* CLC401 Macromodel Net List--- Subcircuit Format (MMD.06)
*
*   This is a Wide band, High Gain Monolithic Current Feedback
*   Op Amp with Fast Settling (.01% in 10nS) and Low Power.
*
* Version 1, Rev. B, Date 03-11-92, By RRS
*
* Connections: Non-Inverting Input
*              | Inverting Input
*              | | Output
*              | | | +Vcc
*              | | | | -Vee
*              | | | | |
.SUBCKT CLC401 3 2 6 7 4 
*
* DC BIAS MIRROR
*
R1 7 9 1112 
R2 9 10 6.27K
R3 10 4 1172 
G1 7 12 POLY(1) 7 9 93.4U .906M
C2 12 0 .37P
G2 15 4 POLY(1) 10 4 0 .87M
C3 15 0 .16P
*
* INPUT VOLTAGE BUFFER
*
E1 3 11 POLY(1) 38 0 0 2.16
C51 11 0 750F
R5 19 4 1550
V1 13 19 2.2
C15 13 0 203F
Q1 13 11 12 QINP
R6 7 20 1478
V2 20 14 1.65 
C16 14 0 227F
Q2 14 11 15 QINN
Q7 2 2 12 QINP
Q8 2 2 15 QINN
G0 2 0 POLY(1) 39 0 0 15.14M
C0 2 0 1.5P
*
* CURRENT MIRROR GAIN BLOCKS
*
G4 16 4 POLY(1) 19 4 0 2.4187M 
G5 17 4 POLY(1) 19 4 0 2.4284M
G3 7 16 POLY(1) 7 20 0 2.904M
G6 7 18 POLY(1) 7 20 0 2.5984M 
R7 16 0 730.96K
C6 16 0 840F
*
* OUTPUT STAGE AND COMPENSATION CAPACITORS
*
C4 14 16 100F 
C5 13 16 100F 
V3 7 21 1.75
V4 22 4 1.5
D1 16 21 DX
D2 22 16 DX
Q3 7 16 17 QOUTN1
Q4 4 16 18 QOUTP1 0.333
Q5 7 118 46 QOUTN2
R10 46 6 10.0
R11 18 118 100
C12 18 0 1.48p
C13 17 0 1.21p
C7 46 0 1.50P
R112 17 117 100
Q6 4 117 46 QOUTP4
*
* NOISE BLOCKS
*
R19 38 0 122
R20 38 0 122
R21 39 0 122
R22 39 0 122
*
* MODELS
*
.MODEL DX D TT=10N
*
.MODEL QINN NPN
+ IS =2.121E-16 BF=3.239E+02   NF =1.000E+00 VAF=8.457E+01
+ IKF=2.462E-02 ISE=2.956E-17  NE =1.197E+00 BR =3.719E+01
+ NR =1.000E+00 VAR=1.696E+00  IKR=3.964E-02 ISC=1.835E-19
+ NC =1.700E+00 RB=6.796E+01   IRB=0.000E+00 RBM=1.506E+01
+ RE =5.613E-01 RC=2.645E+01   CJE=1.588E-13 VJE=7.973E-01
+ MJE=4.950E-01 TF=1.948E-11   XTF=1.873E+01 VTF=2.825E+00
+ ITF=5.955E-02 PTF=0.000E+00  CJC=1.720E-13 VJC=8.046E-01
+ MJC=4.931E-01 XCJC=1.386E-01 TR =4.212E-10 CJS=3.938E-13
+ VJS=5.723E-01 MJS=4.105E-01  KF =2.000E-12 AF =1.000E+00
+ FC =9.765E-01
*
.MODEL QOUTN1 NPN
+ IS =7.822E-16 BF=3.239E+02   NF =1.000E+00 VAF=8.457E+01
+ IKF=9.079E-02 ISE=1.090E-16  NE =1.197E+00 BR =3.960E+01
+ NR =1.000E+00 VAR=1.696E+00  IKR=1.462E-01 ISC=5.656E-19
+ NC =1.700E+00 RB=1.843E+01   IRB=0.000E+00 RBM=4.083E+00
+ RE =1.522E-01 RC=6.141E+00   CJE=5.858E-13 VJE=7.973E-01
+ MJE=4.950E-01 TF=1.874E-11   XTF=1.873E+01 VTF=2.825E+00
+ ITF=2.196E-01 PTF=0.000E+00  CJC=5.143E-13 VJC=8.046E-01
+ MJC=4.931E-01 XCJC=1.709E-01 TR =1.069E-09 CJS=8.567E-13
+ VJS=5.723E-01 MJS=4.105E-01  KF =2.000E-12 AF =1.000E+00
+ FC =9.765E-01
*
.MODEL QOUTN2 NPN
+ IS =1.880E-15 BF=3.239E+02   NF =1.000E+00 VAF=8.457E+01
+ IKF=2.182E-01 ISE=2.620E-16  NE =1.197E+00 BR =3.971E+01
+ NR =1.000E+00 VAR=1.696E+00  IKR=3.513E-01 ISC=1.348E-18
+ NC =1.700E+00 RB=1.076E+02   IRB=0.000E+00 RBM=1.699E+00
+ RE =6.333E-02 RC=3.738E+00   CJE=1.408E-12 VJE=7.973E-01
+ MJE=4.950E-01 TF=1.871E-11   XTF=1.873E+01 VTF=2.825E+00
+ ITF=5.278E-01 PTF=0.000E+00  CJC=1.224E-12 VJC=8.046E-01
+ MJC=4.931E-01 XCJC=1.726E-01 TR =1.296E-09 CJS=1.496E-12
+ VJS=5.723E-01 MJS=4.105E-01  KF =2.000E-12 AF =1.000E+00
+ FC =9.765E-01
*
.MODEL QINP PNP
+ IS =1.286E-16 BF=7.165E+01   NF =1.000E+00 VAF=3.439E+01
+ IKF=1.882E-02 ISE=6.380E-16  NE =1.366E+00 BR =1.833E+01
+ NR =1.000E+00 VAR=1.805E+00  IKR=1.321E-01 ISC=3.666E-18
+ NC =1.634E+00 RB=2.876E+01   IRB=0.000E+00 RBM=7.568E+00
+ RE =6.118E-01 RC=3.739E+01   CJE=1.588E-13 VJE=7.975E-01
+ MJE=5.000E-01 TF=3.156E-11   XTF=5.386E+00 VTF=2.713E+00
+ ITF=5.084E-02 PTF=0.000E+00  CJC=2.725E-13 VJC=7.130E-01
+ MJC=4.200E-01 XCJC=1.385E-01 TR =7.500E-11 CJS=7.417E-13
+ VJS=6.691E-01 MJS=3.950E-01  KF =2.000E-12 AF =1.000E+00
+ FC =8.803E-01
*
.MODEL QOUTP1 PNP
+ IS =4.744E-16 BF=7.165E+01   NF =1.000E+00 VAF=3.439E+01
+ IKF=6.940E-02 ISE=2.353E-15  NE =1.366E+00 BR =1.948E+01
+ NR =1.000E+00 VAR=1.805E+00  IKR=4.873E-01 ISC=1.322E-17
+ NC =1.634E+00 RB=7.797E+00   IRB=0.000E+00 RBM=2.052E+00
+ RE =1.659E-01 RC=1.037E+01   CJE=5.858E-13 VJE=7.975E-01
+ MJE=5.000E-01 TF=3.073E-11   XTF=5.386E+00 VTF=2.713E+00
+ ITF=1.875E-01 PTF=0.000E+00  CJC=8.147E-13 VJC=7.130E-01
+ MJC=4.200E-01 XCJC=1.709E-01 TR =1.450E-10 CJS=1.364E-12
+ VJS=6.691E-01 MJS=3.950E-01  KF =2.000E-12 AF =1.000E+00
+ FC =8.803E-01
*
.MODEL QOUTP4 PNP
+ IS =1.158E-15 BF=7.165E+01   NF =1.000E+00 VAF=3.439E+01
+ IKF=1.694E-01 ISE=5.742E-15  NE =1.366E+00 BR =1.923E+01 
+ NR =1.000E+00 VAR=1.805E+00  IKR=1.189E+00 ISC=3.240E-17 
+ NC =1.634E+00 RB=1.031E+02   IRB=0.000E+00 RBM=8.410E-01 
+ RE =6.797E-02 RC=8.267E+00   CJE=1.430E-12 VJE=7.975E-01 
+ MJE=5.000E-01 TF=3.090E-11   XTF=5.386E+00 VTF=2.713E+00
+ ITF=4.575E-01 PTF=0.000E+00  CJC=2.083E-12 VJC=7.130E-01 
+ MJC=4.200E-01 XCJC=1.631E-01 TR =1.150E-10 CJS=3.993E-12 
+ VJS=6.691E-01 MJS=3.950E-01  KF =2.000E-12 AF =1.000E+00 
+ FC =8.803E-01 
*
.MODEL QOUTP3 PNP
+ IS =1.140E-15 BF=7.165E+01   NF =1.000E+00 VAF=3.439E+01
+ IKF=1.668E-01 ISE=5.655E-15  NE =1.366E+00 BR =1.953E+01
+ NR =1.000E+00 VAR=1.805E+00  IKR=1.171E+00 ISC=3.173E-17
+ NC =1.634E+00 RB=3.245E+00   IRB=0.000E+00 RBM=8.539E-01
+ RE =6.902E-02 RC=6.213E+00   CJE=1.408E-12 VJE=7.975E-01
+ MJE=5.000E-01 TF=3.070E-11   XTF=5.386E+00 VTF=2.713E+00
+ ITF=4.506E-01 PTF=0.000E+00  CJC=1.939E-12 VJC=7.130E-01
+ MJC=4.200E-01 XCJC=1.726E-01 TR =1.850E-10 CJS=2.351E-12
+ VJS=6.691E-01 MJS=3.950E-01  KF =2.000E-12 AF =1.000E+00
+ FC =8.803E-01
*
.ENDS CLC401
* CLC402 Macromodel Net List--- Subcircuit Format (MMD.06)
*
*   This is a Low Gain Monolithic Current Feedback Op Amp
*   with Fast 14-bit Settling (.0025% in 25nS) and Low Power.
*
* Version 1, Rev. B, Date 03-25-94, by KEB
*
* Connections:  Non-Inverting Input
*               | Inverting
*               | | Output
*               | | | +Vcc
*               | | | | -Vee
*               | | | | |
.SUBCKT CLC402  3 2 6 7 4
*
* BIAS CIRCUITRY
*
R1 7 10 1.50K
V1 10 4 3.00
G1 7 15 POLY(2) 7 10 7 15 0 114.0U 5.50U
C1 15 0 853F
G2 17 4 POLY(1) 7 10 0 119U
C3 17 0 692F
*
* INPUT STAGE
*
E1 3 16 POLY(2) 30 0 31 0 -1.10M 1.35 1.35
G3 16 0 POLY(2) 34 0 35 0 0 24.9M 24.9M
C2 16 0 1.50P
D1 15 16 DZ
D2 16 17 DZ
Q3 21 15 2 QINN
Q4 22 17 2 QINP
C4 2 0 1.30P
G4 21 0 POLY(4) 32 0 33 0 2 4 2 7 0 13.5M 13.5M -2.50U 0.50U
*
* GAIN STAGE
*
V2 7 20 1.96
R2 20 21 263
V4 7 24 1.82
D3 25 24 DX
G5 7 25 POLY(1) 20 21 0 8.442M
C6 27 21 1.20P
C8 27 0 699F
G7 7 27 POLY(1) 20 21 0 8.382M
*
R3 22 23 248
V3 23 4 1.81
D4 26 25 DX
V5 26 4 1.58
G6 25 4 POLY(1) 22 23 0 9.122M
C7 28 22 1.20P
C9 28 0 339F
G8 28 4 POLY(1) 22 23 0 9.222M
*
* OUTPUT STAGE
*
R4 25 0 756K
C5 25 0 3.25P
Q5 4 25 27 QOUTP1
Q6 7 25 28 QOUTN1
Q7 7 27 29 QOUTN2
Q8 4 28 29 QOUTP2
R5 29 6 5.00
C10 6 0 1.50P
*
* NOISE BLOCKS
*
I1 31 30 DC 846U
D5 30 0 DN1
D6 0 31 DN1
*
I2 33 32 DC 846U
D7 32 0 DN2
D8 0 33 DN2
*
I3 35 34 DC 846U
D9 34 0 DN1
D10 0 35 DN1
*
* MODELS
*
.MODEL DN1 D IS=0.166F RS=15.2 KF=100F AF=1.00
.MODEL DN2 D IS=0.166F RS=15.2 KF=155F AF=1.00
.MODEL DX D TT=100N
.MODEL DZ D IS=9.13E-17
*
.MODEL QINN NPN
+ IS =1.660E-16 BF =3.239E+02  NF =1.000E+00
+ IKF=2.462E-02 ISE=2.956E-17  NE =1.197E+00 BR =3.719E+01
+ NR =1.000E+00 VAR=1.696E+00  IKR=3.964E-02 ISC=1.835E-19
+ NC =1.700E+00 RB =2.790E+01  IRB=0.000E+00 RBM=1.506E+01
+ RC =2.645E+01 CJE=1.688E-13  VJE=7.973E-01
+ MJE=4.950E-01 TF =9.906E-11  XTF=1.873E+01 VTF=2.825E+00
+ ITF=5.955E-02 PTF=0.000E+00  CJC=1.720E-13 VJC=8.046E-01
+ MJC=4.931E-01 XCJC=1.710E-01 TR =4.212E-10 CJS=1.258E-12
+ VJS=5.723E-01 MJS=0.000E+01  FC =9.765E-01
*
.MODEL QOUTN1 NPN
+ IS =9.386E-16 BF =3.239E+02  NF =1.000E+00 VAF=8.457E+01
+ IKF=2.462E-02 ISE=1.308E-16  NE =1.197E+00 BR =3.956E+01
+ NR =1.000E+00 VAR=1.696E+00  IKR=3.547E-01 ISC=6.787E-19
+ NC =1.700E+00 RB =1.536E+01  IRB=0.000E+00 RBM=3.403E+00
+ RC =1.857E+01 CJE=7.030E-13  VJE=7.973E-01
+ MJE=4.950E-01 TF =1.875E-11  XTF=1.873E+01 VTF=2.825E+00
+ ITF=2.635E-01 PTF=0.000E+00  CJC=6.172E-13 VJC=8.046E-01
+ MJC=4.931E-01 XCJC=1.702E-01 TR =1.069E-09 CJS=1.028E-12
+ VJS=5.723E-01 MJS=4.105E-01  FC =9.765E-01
*
.MODEL QOUTN2 NPN
+ IS =1.880E-15 BF =3.239E+02  NF =1.000E+00 VAF=8.457E+01
+ IKF=2.203E-01 ISE=2.620E-16  NE =1.197E+00 BR =3.971E+01
+ NR =1.000E+00 VAR=1.696E+00  IKR=3.513E-01 ISC=1.348E-18
+ NC =1.700E+00 RB =107.6E+00  IRB=0.000E+00 RBM=101.6E+00
+ RC =1.227E+00 CJE=1.408E-12  VJE=7.973E-01
+ MJE=4.950E-01 TF =1.871E-11  XTF=1.873E+01 VTF=2.825E+00
+ ITF=5.330E-01 PTF=0.000E+00  CJC=1.224E-12 VJC=8.046E-01
+ MJC=4.931E-01 XCJC=1.726E-01 TR =7.776E-10 CJS=1.931E-12
+ VJS=5.723E-01 MJS=4.105E-01  FC =9.765E-01
*
.MODEL QINP PNP
+ IS =1.660E-16 BF =7.165E+01  NF =1.000E+00
+ IKF=1.882E-02 ISE=6.380E-16  NE =1.366E+00 BR =1.833E+01
+ NR =1.000E+00 VAR=1.805E+00  IKR=1.321E-01 ISC=3.666E-18
+ NC =1.634E+00 RB =2.876E+01  IRB=0.000E+00 RBM=7.568E+00
+ RC =3.739E+01 CJE=1.588E-13  VJE=7.975E-01
+ MJE=5.000E-01 TF =1.589E-10  XTF=5.386E+00 VTF=2.713E+00
+ ITF=5.084E-02 PTF=0.000E+00  CJC=2.725E-13 VJC=7.130E-01
+ MJC=4.200E-01 XCJC=1.710E-01 TR =7.500E-11 CJS=1.030E-12
+ VJS=6.691E-01 MJS=0.000E+00  FC =8.803E-01
*
.MODEL QOUTP1 PNP
+ IS =5.693E-16 BF =7.165E+01  NF =1.000E+00 VAF=3.439E+01
+ IKF=8.328E-02 ISE=2.824E-15  NE =1.366E+00 BR =1.923E+01
+ NR =1.000E+00 VAR=1.805E+00  IKR=5.848E-01 ISC=1.586E-17
+ NC =1.634E+00 RB =6.498E+00  IRB=0.000E+00 RBM=1.710E+00
+ RC =1.767E+01 CJE=7.030E-13  VJE=7.975E-01
+ MJE=5.000E-01 TF =3.090E-11  XTF=5.386E+00 VTF=2.713E+00
+ ITF=2.250E-01 PTF=0.000E+00  CJC=9.776E-13 VJC=7.130E-01
+ MJC=4.200E-01 XCJC=1.709E-01 TR =1.450E-10 CJS=1.637E-12
+ VJS=6.691E-01 MJS=3.950E-01  FC =8.803E-01
*
.MODEL QOUTP2 PNP
+ IS =1.158E-15 BF =7.165E+01  NF =1.000E+00 VAF=3.439E+01
+ IKF=1.694E-01 ISE=5.742E-15  NE =1.366E+00 BR =1.953E+01
+ NR =1.000E+00 VAR=1.805E+00  IKR=1.189E+00 ISC=3.173E-17
+ NC =1.634E+00 RB =103.2E+00  IRB=0.000E+00 RBM=100.5E+00
+ RC =8.267E+00 CJE=1.430E-12  VJE=7.975E-01
+ MJE=5.000E-01 TF =3.090E-11  XTF=5.386E+00 VTF=2.713E+00
+ ITF=4.575E-01 PTF=0.000E+00  CJC=2.083E-12 VJC=7.130E-01
+ MJC=4.200E-01 XCJC=1.631E-01 TR =1.150E-10 CJS=3.993E-12
+ VJS=6.691E-01 MJS=3.950E-01  FC =8.803E-01
*
.ENDS CLC402
* CLC404 Macromodel Net List--- Subcircuit Format (MMD.06)
*
*   This is a Wide band Monolithic Current Feedback Op Amp
*   with High Slew Rate.
*
* Version 1, Rev. A, Date 04-09-92, By KEB
*
* Connections: Non-Inverting Input
*              | Inverting Input
*              | | Output
*              | | | +Vcc
*              | | | | -Vcc
*              | | | | |
.SUBCKT CLC404 3 2 6 7 4
*
* DC BIAS MIRROR
*
R1 7 4 18.2K
R2 7 9 271
C1 9 0 1.25P
C2 10 0 263F
R3 10 4 335
*
G1 7 11 POLY(2) 7 9 7 4 0 3.02M 21.5U
C3 11 0 648F
*
G2 14 4 POLY(1) 10 4 0 2.76M
C4 14 0 554F
*
* INPUT VOLTAGE BUFFER
*
E1 3 17 POLY(1) 35 0 2.0M 1.48
C6 17 0 1.00P
*
R7 17 15 50.0
Q1 10 15 12 QINP
R4 12 11 38.9
R8 17 16 50.0
Q2 9 16 13 QINN
R5 13 14 33.7
*
G3 2 0 POLY(1) 36 0 0 8.14M
C10 2 0 2.48P
*
R11 2 22 37.6
Q3 21 18 22 QINN
R6 11 18 50.0
*
R12 2 23 38.4
Q4 24 19 23 QINP
R9 14 19 50.0
*
* CURRENT MIRROR GAIN BLOCKS
*
R10 7 20 640
V1 20 21 2.55
C5 21 0 1.30P
C8 21 28 274F
G4 7 28 POLY(1) 7 20 0 4.30M
R15 7 28 102K
C13 28 0 641F
D1 28 26 DX
V3 7 26 1.50
G6 7 30 POLY(1) 7 20 0 2.74M
C15 30 0 676F
*
R13 25 4 640
V2 24 25 2.51
C7 24 0 648F
C12 24 29 160F
G5 29 4 POLY(1) 25 4 0 4.50M
R16 29 4 761K
C14 29 0 312F
D2 27 29 DX
V4 27 4 1.50
G7 31 4 POLY(1) 25 4 0 6.74M
C16 31 0 330F
*
* OUTPUT STAGE AND COMPENSATION CAPACITORS
*
R14 28 29 40.0
Q5 4 29 30 QOUTP1
Q6 7 28 31 QOUTN1
*
C9 21 33 390F
C11 24 33 390F
C17 33 0 5.00P
R19 33 6 10
*
R17 30 32 50.0
Q7 7 32 33 QOUTN2
*
R18 31 34 50.0
Q8 4 34 33 QOUTP2
*
* NOISE BLOCKS
*
R20 35 0 122
R21 35 0 122
*
R22 36 0 122
R23 36 0 122
*
* MODELS
*
.MODEL DX D TT=200N
*
.MODEL QINN NPN
+ IS =1.660E-16 BF =3.239E+02  NF =1.000E+00 VAF=8.457E+01
+ IKF=2.462E-02 ISE=2.956E-17  NE =1.197E+00 BR =3.719E+01
+ NR =1.000E+00 VAR=1.696E+00  IKR=3.964E-02 ISC=1.835E-19
+ NC =1.700E+00 RB =6.796E+01  IRB=0.000E+00 RBM=1.506E+01
+ RE =5.613E-01 RC =2.645E+01  CJE=1.588E-13 VJE=7.973E-01
+ MJE=4.950E-01 TF =1.948E-11  XTF=1.873E+01 VTF=2.825E+00
+ ITF=5.955E-02 PTF=0.000E+00  CJC=1.720E-13 VJC=8.046E-01
+ MJC=4.931E-01 XCJC=1.386E-01 TR =4.212E-10 CJS=3.938E-13
+ VJS=5.723E-01 MJS=4.105E-01  KF =2.000E-12 AF =1.000E+00
+ FC =9.765E-01
*
.MODEL QOUTN1 NPN
+ IS =3.954E-16 BF =3.239E+02  NF =1.000E+00 VAF=8.457E+01
+ IKF=4.590E-02 ISE=5.512E-17  NE =1.197E+00 BR =3.719E+01
+ NR =1.000E+00 VAR=1.696E+00  IKR=7.392E-02 ISC=3.087E-19
+ NC =1.700E+00 RB =3.645E+01  IRB=0.000E+00 RBM=8.077E+00
+ RE =3.010E-01 RC =2.702E+01  CJE=2.962E-13 VJE=7.973E-01
+ MJE=4.950E-01 TF =1.904E-11  XTF=1.873E+01 VTF=2.825E+00
+ ITF=1.110E-01 PTF=0.000E+00  CJC=2.846E-13 VJC=8.046E-01
+ MJC=4.931E-01 XCJC=1.562E-01 TR =5.832E-10 CJS=5.015E-13
+ VJS=5.723E-01 MJS=4.105E-01  KF =2.000E-12 AF =1.000E+00
+ FC =9.765E-01
*
.MODEL QOUTN2 NPN
+ IS =1.898E-15 BF =3.239E+02  NF =1.000E+00 VAF=8.457E+01
+ IKF=2.203E-01 ISE=2.645E-16  NE =1.197E+00 BR =3.956E+01
+ NR =1.000E+00 VAR=1.696E+00  IKR=3.547E-01 ISC=1.378E-18
+ NC =1.700E+00 RB =7.592E+00  IRB=0.000E+00 RBM=1.683E+00
+ RE =6.271E-02 RC =1.227E+01  CJE=1.422E-12 VJE=7.973E-01
+ MJE=4.950E-01 TF =1.875E-11  XTF=1.873E+01 VTF=2.825E+00
+ ITF=5.330E-01 PTF=0.000E+00  CJC=1.254E-12 VJC=8.046E-01
+ MJC=4.931E-01 XCJC=1.702E-01 TR =7.776E-10 CJS=1.931E-12
+ VJS=5.723E-01 MJS=4.105E-01  KF =2.000E-12 AF =1.000E+00
+ FC =9.765E-01
*
.MODEL QINP PNP
+ IS =1.660E-16 BF =7.165E+01  NF =1.000E+00 VAF=2.000E+01
+ IKF=1.882E-02 ISE=6.380E-16  NE =1.366E+00 BR =1.833E+01
+ NR =1.000E+00 VAR=1.805E+00  IKR=1.321E-01 ISC=3.666E-18
+ NC =1.634E+00 RB =2.876E+01  IRB=0.000E+00 RBM=7.568E+00
+ RE =6.118E-01 RC =3.739E+01  CJE=1.588E-13 VJE=7.975E-01
+ MJE=5.000E-01 TF =3.156E-11  XTF=5.386E+00 VTF=2.713E+00
+ ITF=5.084E-02 PTF=0.000E+00  CJC=2.725E-13 VJC=7.130E-01
+ MJC=4.200E-01 XCJC=1.385E-01 TR =7.500E-11 CJS=7.417E-13
+ VJS=6.691E-01 MJS=3.950E-01  KF =2.000E-12 AF =1.000E+00
+ FC =8.803E-01
*
.MODEL QOUTP1 PNP
+ IS =2.399E-16 BF =7.165E+01  NF =1.000E+00 VAF=3.439E+01
+ IKF=3.509E-02 ISE=1.190E-15  NE =1.366E+00 BR =1.900E+01
+ NR =1.000E+00 VAR=1.805E+00  IKR=2.464E-01 ISC=6.745E-18
+ NC =1.634E+00 RB =1.542E+01  IRB=0.000E+00 RBM=4.059E+00
+ RE =3.281E-01 RC =4.174E+01  CJE=2.962E-13 VJE=7.975E-01
+ MJE=5.000E-01 TF =3.107E-11  XTF=5.386E+00 VTF=2.713E+00
+ ITF=9.481E-02 PTF=0.000E+00  CJC=4.508E-13 VJC=7.130E-01
+ MJC=4.200E-01 XCJC=1.562E-01 TR =9.500E-11 CJS=1.045E-12
+ VJS=6.691E-01 MJS=3.950E-01  KF =2.000E-12 AF =1.000E+00
+ FC =8.803E-01
*
.MODEL QOUTP2 PNP
+ IS =1.158E-15 BF =7.165E+01  NF =1.000E+00 VAF=3.439E+01
+ IKF=1.694E-01 ISE=5.742E-15  NE =1.366E+00 BR =1.923E+01
+ NR =1.000E+00 VAR=1.805E+00  IKR=1.189E+00 ISC=3.240E-17
+ NC =1.634E+00 RB =3.162E+00  IRB=0.000E+00 RBM=8.410E-01
+ RE =6.797E-02 RC =8.267E+00  CJE=1.430E-12 VJE=7.975E-01
+ MJE=5.000E-01 TF =3.090E-11  XTF=5.386E+00 VTF=2.713E+00
+ ITF=4.575E-01 PTF=0.000E+00  CJC=2.083E-12 VJC=7.130E-01
+ MJC=4.200E-01 XCJC=1.631E-01 TR =1.150E-10 CJS=3.993E-12
+ VJS=6.691E-01 MJS=3.950E-01  KF =2.000E-12 AF =1.000E+00
+ FC =8.803E-01
*
.ENDS CLC404
* CLC406 Macromodel Net List--- Subcircuit Format (MMD.06)
*
*   This is a Wide band Low Cost, Low Power Monolithic
*   Current Feedback Op Amp.
*
* Version 1, Rev. C, Date 07-08-94, by KEB
*
* Connections: Non-Inverting Input
*              | Inverting
*              | | Output
*              | | | +Vcc
*              | | | | -Vee
*              | | | | |
*              | | | | |
*              | | | | |
*              | | | | |
.SUBCKT CLC406 3 2 6 7 4
*
* BIAS BLOCK
*
G1 7 10 POLY(1) 7 14 123U 1.674M
C2 10 0 644F
C3 10 14 143F
R1 7 14 524
*
G3 16 4 POLY(1) 13 4 0 1.649M
C5 16 0 551F
C4 13 16 84.0F
R2 13 4 532
*
* INPUT STAGE
*
C1 3 0 1.00P
E1 3 12 POLY(2) 50 0 51 0 -1.50M 1.00 1.00
G2 12 0 POLY(2) 52 0 53 0 0 1.00M 1.00M
*
D1 10 11 DX
Q1 13 12 11 QINP
Q2 14 12 15 QINN
D2 15 16 DX
*
G4 21 0 POLY(2) 54 0 55 0 -14.0U 1.00M 1.00M
Q3 21 10 22 QINN
D3 22 2 DX
C6 2 0 2.07P
D4 2 23 DX
Q4 24 16 23 QINP
*
* GAIN STAGE
*
R3 7 20 591
V1 20 21 1.96
C7 21 31 131F
G5 7 31 POLY(2) 7 20 7 31 0 3.881M 7.32U
V3 7 30 1.96
D5 31 30 DOR
G7 7 40 POLY(1) 7 20 0 4.633M
C10 21 40 217F
C11 40 0 475F
C14 21 6 300F
*
R4 25 4 589
V2 24 25 2.05
C9 24 31 76.6F
G6 31 4 POLY(2) 25 4 31 4 0 3.997M 1.05U
V4 32 4 2.44
D6 32 31 DOR
G8 42 4 POLY(1) 25 4 0 2.229M
C12 24 42 139F
C13 42 0 634F
C16 24 6 300F
*
* OUTPUT STAGE
*
C8 31 0 474F
Q5 4 31 40 QOUTP1
Q6 7 31 41 QOUTN1 0.67
D7 41 42 DX 1.88
Q7 7 31 43 QOUTN1 0.33
Q8 4 42 43 QOUTP1 0.50
*
Q9 7 40 6 QOUTN2
C15 6 0 2.50P
Q10 4 43 6 QOUTP2
*
* NOISE BLOCKS
*
I1 51 50 DC 121U
D8 50 0 DN1
D9 0 51 DN1
*
I2 53 52 DC 413U
D10 52 0 DN2
D11 0 53 DN2
*
I3 55 54 DC 14.3U
D12 54 0 DN3
D13 0 55 DN3
*
* MODELS
*
.MODEL DN1 D IS=0.166F KF=4.48F AF=1.00
.MODEL DN2 D IS=0.166F KF=82.4F AF=1.00
.MODEL DN3 D IS=0.166F KF=47.6F AF=1.00
.MODEL DOR D TT=100N
.MODEL DX D IS=0.165F RS=583M CJO=159F M=495M VJ=797M TT=25.5P
*
.MODEL QINN NPN
+ IS =1.652E-16 BF =3.239E+02 NF =1.000E+00 VAF=4.229E+01
+ IKF=2.462E-02 ISE=2.956E-17 NE =1.197E+00 BR =3.719E+01
+ NR =1.000E+00 VAR=1.696E+00 IKR=3.964E-02 ISC=1.835E-19
+ NC =1.700E+00 RB =1.180E+02 IRB=0.000E+00 RBM=6.506E+01
+ RE =5.613E-01 RC =2.645E+01 CJE=1.588E-13 VJE=7.973E-01
+ MJE=4.950E-01 TF =1.948E-11 XTF=1.873E+01 VTF=2.825E+00
+ ITF=5.955E-02 PTF=0.000E+00 CJC=1.720E-13 VJC=8.046E-01
+ MJC=4.931E-01 XCJC=8.61E-01 TR =4.212E-10 CJS=1.136E-12
+ VJS=5.723E-01 MJS=0.000E+00 FC =9.765E-01
*
.MODEL QOUTN1 NPN
+ IS =7.822E-16 BF =3.239E+02 NF =1.000E+00 VAF=8.457E+01
+ IKF=9.079E-02 ISE=1.090E-16 NE =1.197E+00 BR =3.960E+01
+ NR =1.000E+00 VAR=1.696E+00 IKR=1.462E-01 ISC=5.656E-19
+ NC =1.700E+00 RB =1.843E+01 IRB=0.000E+00 RBM=4.083E+00
+ RE =1.522E-01 RC =6.141E+00 CJE=5.858E-13 VJE=7.973E-01
+ MJE=4.950E-01 TF =1.874E-11 XTF=1.873E+01 VTF=2.825E+00
+ ITF=2.196E-01 PTF=0.000E+00 CJC=5.143E-13 VJC=8.046E-01
+ MJC=4.931E-01 XCJC=1.71E-01 TR =1.069E-09 CJS=8.567E-13
+ VJS=5.723E-01 MJS=4.105E-01 FC =9.765E-01
*
.MODEL QOUTN2 NPN
+ IS =1.880E-15 BF =3.239E+02 NF =1.000E+00 VAF=8.457E+01
+ IKF=2.182E-01 ISE=2.620E-16 NE =1.197E+00 BR =3.971E+01
+ NR =1.000E+00 VAR=1.696E+00 IKR=3.513E-01 ISC=1.348E-18
+ NC =1.700E+00 RB =3.267E+01 IRB=0.000E+00 RBM=2.670E+01
+ RE =1.006E+01 RC =3.738E+00 CJE=1.408E-12 VJE=7.973E-01
+ MJE=4.950E-01 TF =1.871E-11 XTF=1.873E+01 VTF=2.825E+00
+ ITF=5.278E-01 PTF=0.000E+00 CJC=1.224E-12 VJC=8.046E-01
+ MJC=4.931E-01 XCJC=9.27E-01 TR =1.296E-09 CJS=1.496E-12
+ VJS=5.723E-01 MJS=4.105E-01 FC =9.765E-01
*
.MODEL QINP PNP
+ IS =1.652E-16 BF =7.165E+01 NF =1.000E+00 VAF=1.720E+01
+ IKF=1.882E-02 ISE=6.380E-16 NE =1.366E+00 BR =1.833E+01
+ NR =1.000E+00 VAR=1.805E+00 IKR=1.321E-01 ISC=3.666E-18
+ NC =1.634E+00 RB =7.876E+01 IRB=0.000E+00 RBM=5.757E+01
+ RE =6.118E-01 RC =3.739E+01 CJE=1.588E-13 VJE=7.975E-01
+ MJE=5.000E-01 TF =3.156E-11 XTF=5.386E+00 VTF=2.713E+00
+ ITF=5.084E-02 PTF=0.000E+00 CJC=2.725E-13 VJC=7.130E-01
+ MJC=4.200E-01 XCJC=8.61E-01 TR =1.096E-09 CJS=1.136E-12
+ VJS=6.691E-01 MJS=0.000E+00 FC =8.803E-01
*
.MODEL QOUTP1 PNP
+ IS =4.744E-16 BF =7.165E+01 NF =1.000E+00 VAF=3.439E+01
+ IKF=6.940E-02 ISE=2.353E-15 NE =1.366E+00 BR =1.948E+01
+ NR =1.000E+00 VAR=1.805E+00 IKR=4.873E-01 ISC=1.322E-17
+ NC =1.634E+00 RB =7.797E+00 IRB=0.000E+00 RBM=2.052E+00
+ RE =1.659E-01 RC =1.037E+01 CJE=5.858E-13 VJE=7.975E-01
+ MJE=5.000E-01 TF =3.073E-11 XTF=5.386E+00 VTF=2.713E+00
+ ITF=1.875E-01 PTF=0.000E+00 CJC=8.147E-13 VJC=7.130E-01
+ MJC=4.200E-01 XCJC=1.71E-01 TR =2.119E-09 CJS=1.364E-12
+ VJS=6.691E-01 MJS=3.950E-01 FC =8.803E-01
*
.MODEL QOUTP2 PNP
+ IS =1.140E-15 BF =7.165E+01 NF =1.000E+00 VAF=3.439E+01
+ IKF=1.668E-01 ISE=5.655E-15 NE =1.366E+00 BR =1.953E+01
+ NR =1.000E+00 VAR=1.805E+00 IKR=1.171E+00 ISC=3.173E-17
+ NC =1.634E+00 RB =2.825E+01 IRB=0.000E+00 RBM=2.585E+01
+ RE =1.006E+01 RC =6.213E+00 CJE=1.408E-12 VJE=7.975E-01
+ MJE=5.000E-01 TF =3.070E-11 XTF=5.386E+00 VTF=2.713E+00
+ ITF=4.506E-01 PTF=0.000E+00 CJC=1.939E-12 VJC=7.130E-01
+ MJC=4.200E-01 XCJC=9.27E-01 TR =2.704E-09 CJS=2.351E-12
+ VJS=6.691E-01 MJS=3.950E-01 FC =8.803E-01
*
.ENDS CLC406
* CLC409 Macromodel Net List--- Subcircuit Format (MMD.06)
*
*   This is a Very Wide band, Low Distortion Monolithic
*   Current Feedback Op Amp.
*
* Version 1, Rev. A, Date 04-09-92, By RRS
*
* Connections: Non-Inverting Input
*              | Inverting Input
*              | | Output
*              | | | +Vcc
*              | | | | -Vcc
*              | | | | |
.SUBCKT CLC409 3 2 6 7 4
*
* DC BIAS MIRROR
*
R1 7 4 28K
R2 7 9 271
R3 10 4 335
*
G1 7 11 POLY(2) 7 9 7 4 0 3.15M 21.5U
C3 11 0 128F
*
G2 14 4 POLY(1) 10 4 0 2.95M
C4 14 0 104F
*
* INPUT VOLTAGE BUFFER
*
E1 3 17 POLY(1) 35 0 1.0M 1.673
C6 17 0 1.00P
*
Q1 10 17 12 QINP
D3 11 12 DY
Q2 9 17 13 QINN
D4 13 14 DY
*
G3 2 0 POLY(1) 36 0 0 9.282M
C10 2 0 2.9P
*
D5 22 2 DY
Q3 21 11 22 QINN
D6 2 23 DY
Q4 24 14 23 QINP
*
* CURRENT MIRROR GAIN BLOCKS
*
R10 7 20 640
V1 20 21 1.9
C8 21 28 294F
G4 7 28 POLY(1) 7 20 0 4.3M
R15 7 28 102K
C13 28 0 641F
D1 28 26 DX
V3 7 26 1.65
G6 7 30 POLY(1) 7 20 0 2.74M
C15 30 0 676F
*
R13 25 4 640
V2 24 25 1.85
C12 24 29 294F
G5 29 4 POLY(1) 25 4 0 4.5M
R16 29 4 761K
C14 29 0 312F
D2 27 29 DX
V4 27 4 1.55
G7 31 4 POLY(1) 25 4 0 6.74M
C16 31 0 330F
*
* OUTPUT STAGE AND COMPENSATION CAPACITORS
*
R14 28 29 45.0
Q5 4 29 30 QOUTP1
Q6 7 28 31 QOUTN1
*
C9 21 33 .935P
C11 24 33 .935P
C17 33 0 4.00P
R19 33 6 10
*
Q7 7 30 33 QOUTN2
Q8 4 31 33 QOUTP2
*
* NOISE BLOCKS
*
R20 35 0 122
R21 35 0 122
*
R22 36 0 122
R23 36 0 122
*
* MODELS
*
.MODEL DX D TT=200N
.MODEL DY D IS=0.166F
*
.MODEL QINN NPN
+ IS =0.166f    BF =3.239E+02 NF =1.000E+00 VAF=8.457E+01
+ IKF=2.462E-02 ISE=2.956E-17 NE =1.197E+00 BR =3.719E+01
+ NR =1.000E+00 VAR=1.696E+00 IKR=3.964E-02 ISC=1.835E-19
+ NC =1.700E+00 RB =118       IRB=0.000E+00 RBM=65.1
+ RC =2.645E+01 CJE=1.632E-13 VJE=7.973E-01
+ MJE=4.950E-01 TF =1.948E-11 XTF=1.873E+01 VTF=2.825E+00
+ ITF=5.955E-02 PTF=0.000E+00 CJC=1.720E-13 VJC=8.046E-01
+ MJC=4.931E-01 XCJC=589m     TR =4.212E-10 CJS=629f
+ MJS=0         KF =2.000E-12 AF =1.000E+00 FC =9.765E-01
*
.MODEL QOUTN1 NPN
+ IS =3.954E-16 BF =3.239E+02  NF =1.000E+00 VAF=8.457E+01
+ IKF=4.590E-02 ISE=5.512E-17  NE =1.197E+00 BR =3.719E+01
+ NR =1.000E+00 VAR=1.696E+00  IKR=7.392E-02 ISC=3.087E-19
+ NC =1.700E+00 RB =3.645E+01  IRB=0.000E+00 RBM=8.077E+00
+ RE =3.010E-01 RC =2.702E+01  CJE=2.962E-13
+ MJE=4.950E-01 TF =1.904E-11  XTF=1.873E+01 VTF=2.825E+00
+ ITF=1.110E-01 PTF=0.000E+00  CJC=2.846E-13 VJC=8.046E-01
+ MJC=4.931E-01 XCJC=1.562E-01 TR =5.832E-10 CJS=5.015E-13
+ VJS=5.723E-01 MJS=4.105E-01  KF =2.000E-12 AF =1.000E+00
+ FC =9.765E-01
*
.MODEL QOUTN2 NPN
+ IS =9.386E-16 BF =3.239E+02 NF =1.000E+00 VAF=8.457E+01
+ IKF=1.089E-01 ISE=1.308E-16 NE =1.197E+00 BR =3.956E+01
+ NR =1.000E+00 VAR=1.696E+00 IKR=7.392E-02 ISC=1.378E-18
+ NC =1.700E+00 RB =65.4      IRB=0.000E+00 RBM=1.683E+00
+ RC =1.857E+01 CJE=7.030E-13 VJE=7.973E-01
+ MJE=4.950E-01 TF =1.875E-11 XTF=1.873E+01 VTF=2.825E+00
+ ITF=2.635E-01 PTF=0.000E+00 CJC=6.172E-13 VJC=8.046E-01
+ MJC=4.931E-01 XCJC=860m     TR =1.069E-09 CJS=1.028E-12
+ VJS=5.723E-01 MJS=4.105E-01 KF =2.000E-12 AF =1.000E+00
+ FC =9.765E-01
*
.MODEL QINP PNP
+ IS =0.166f    BF =7.165E+01 NF =1.000E+00 VAF=2.000E+01
+ IKF=1.882E-02 ISE=6.380E-16 NE =1.366E+00 BR =1.833E+01
+ NR =1.000E+00 VAR=1.805E+00 IKR=1.321E-01 ISC=3.666E-18
+ NC =1.634E+00 RB =78.8      IRB=0.000E+00 RBM=57.6
+ RC =3.739E+01 CJE=1.588E-13 VJE=7.975E-01
+ MJE=5.000E-01 TF =3.156E-11 XTF=5.386E+00 VTF=2.713E+00
+ ITF=5.084E-02 PTF=0.000E+00 CJC=2.725E-13 VJC=7.130E-01
+ MJC=4.200E-01 XCJC=741m     TR =7.500E-11 CJS=515f
+ MJS=0         KF =2.000E-12 AF =1.000E+00 FC =8.803E-01
*
.MODEL QOUTP1 PNP
+ IS =2.399E-16 BF =7.165E+01  NF =1.000E+00 VAF=3.439E+01
+ IKF=3.509E-02 ISE=1.190E-15  NE =1.366E+00 BR =1.900E+01
+ NR =1.000E+00 VAR=1.805E+00  IKR=2.464E-01 ISC=6.745E-18
+ NC =1.634E+00 RB =1.542E+01  IRB=0.000E+00 RBM=4.059E+00
+ RC =4.174E+01 CJE=2.962E-13  VJE=7.975E-01
+ MJE=5.000E-01 TF =3.107E-11  XTF=5.386E+00 VTF=2.713E+00
+ ITF=9.481E-02 PTF=0.000E+00  CJC=4.508E-13 VJC=7.130E-01
+ MJC=4.200E-01 XCJC=1.562E-01 TR =9.500E-11 CJS=1.045E-12
+ VJS=6.691E-01 MJS=3.950E-01  KF =2.000E-12 AF =1.000E+00
+ FC =8.803E-01
*
.MODEL QOUTP2 PNP
+ IS =5.693E-16 BF =7.165E+01 NF =1.000E+00 VAF=3.439E+01
+ IKF=8.328E-02 ISE=5.742E-15 NE =1.366E+00 BR =1.923E+01
+ NR =1.000E+00 VAR=1.805E+00 IKR=5.848E-01 ISC=1.586E-17
+ NC =1.634E+00 RB =56.5      IRB=0.000E+00 RBM=51.7
+ RC =1.767E+00 CJE=7.030E-13 VJE=7.975E-01
+ MJE=5.000E-01 TF =3.073E-11 XTF=5.386E+00 VTF=2.713E+00
+ ITF=2.250E-01 PTF=0.000E+00 CJC=9.776E-13 VJC=7.130E-01
+ MJC=4.200E-01 XCJC=923m     TR =1.450E-10 CJS=1.637E-12
+ VJS=6.691E-01 MJS=3.950E-01 KF =2.000E-12 AF =1.000E+00
+ FC =8.803E-01
*
.ENDS CLC409
* CLC412 Macromodel Net List--- Subcircuit Format (MMD.06)
*
*   This is a Wideband, Low Cost, Low Power Dual Monolithic
*   Current Feedback Op Amp.
*
* Version 1, Rev. A, Date 07-13-94, by KEB
*
* Connections: Non-Inverting Input
*              | Inverting
*              | | Output
*              | | | +Vcc
*              | | | | -Vee
*              | | | | |
*              | | | | |
*              | | | | |
*              | | | | |
.SUBCKT CLC412 3 2 1 8 4
*
* BIAS BLOCK
*
G1 8 10 POLY(1) 8 14 123U 1.674M
C2 10 0 644F
C3 10 14 143F
R1 8 14 524
*
G3 16 4 POLY(1) 13 4 0 1.649M
C5 16 0 551F
C4 13 16 84.0F
R2 13 4 532
*
* INPUT STAGE
*
C1 3 0 1.00P
E1 3 12 POLY(2) 50 0 51 0 -1.50M 1.00 1.00
G2 12 0 POLY(2) 52 0 53 0 0 1.00M 1.00M
*
D1 10 11 DX
Q1 13 12 11 QINP
Q2 14 12 15 QINN
D2 15 16 DX
*
G4 21 0 POLY(2) 54 0 55 0 -14.0U 1.00M 1.00M
Q3 21 10 22 QINN
D3 22 2 DX
C6 2 3 500F
C7 2 0 1.72P
D4 2 23 DX
Q4 24 16 23 QINP
*
* GAIN STAGE
*
R3 8 20 591
V1 20 21 1.96
C8 21 31 131F
G5 8 31 POLY(2) 8 20 8 31 0 3.881M 3.66U
V3 8 30 1.96
D5 31 30 DOR
G7 8 40 POLY(1) 8 20 0 4.633M
C11 21 40 217F
C12 40 0 475F
C15 21 1 450F
*
R4 25 4 589
V2 24 25 2.05
C10 24 31 76.6F
G6 31 4 POLY(2) 25 4 31 4 0 3.997M 525N
V4 32 4 2.44
D6 32 31 DOR
G8 42 4 POLY(1) 25 4 0 2.229M
C13 24 42 139F
C14 42 0 634F
C17 24 1 450F
*
* OUTPUT STAGE
*
C9 31 0 474F
Q5 4 31 40 QOUTP1
Q6 8 31 41 QOUTN1 0.67
D7 41 42 DX 1.88
Q7 8 31 43 QOUTN1 0.33
Q8 4 42 43 QOUTP1 0.50
*
Q9 8 40 1 QOUTN2
C16 1 0 2.50P
Q10 4 43 1 QOUTP2
*
* NOISE BLOCKS
*
I1 51 50 DC 91.0U
D8 50 0 DN1
D9 0 51 DN1
*
I2 53 52 DC 413U
D10 52 0 DN2
D11 0 53 DN2
*
I3 55 54 DC 14.3U
D12 54 0 DN3
D13 0 55 DN3
*
* MODELS
*
.MODEL DN1 D IS=0.166F KF=4.48F AF=1.00
.MODEL DN2 D IS=0.166F KF=82.4F AF=1.00
.MODEL DN3 D IS=0.166F KF=47.6F AF=1.00
.MODEL DOR D TT=100N
.MODEL DX D IS=0.165F RS=583M CJO=159F M=495M VJ=797M TT=25.5P
*
.MODEL QINN NPN
+ IS =1.652E-16 BF =3.239E+02 NF =1.000E+00 VAF=4.229E+01
+ IKF=2.462E-02 ISE=2.956E-17 NE =1.197E+00 BR =3.719E+01
+ NR =1.000E+00 VAR=1.696E+00 IKR=3.964E-02 ISC=1.835E-19
+ NC =1.700E+00 RB =1.180E+02 IRB=0.000E+00 RBM=6.506E+01
+ RE =5.613E-01 RC =2.645E+01 CJE=1.588E-13 VJE=7.973E-01
+ MJE=4.950E-01 TF =1.948E-11 XTF=1.873E+01 VTF=2.825E+00
+ ITF=5.955E-02 PTF=0.000E+00 CJC=1.720E-13 VJC=8.046E-01
+ MJC=4.931E-01 XCJC=8.61E-01 TR =4.212E-10 CJS=1.136E-12
+ VJS=5.723E-01 MJS=0.000E+00 FC =9.765E-01
*
.MODEL QOUTN1 NPN
+ IS =7.822E-16 BF =3.239E+02 NF =1.000E+00 VAF=8.457E+01
+ IKF=9.079E-02 ISE=1.090E-16 NE =1.197E+00 BR =3.960E+01
+ NR =1.000E+00 VAR=1.696E+00 IKR=1.462E-01 ISC=5.656E-19
+ NC =1.700E+00 RB =1.843E+01 IRB=0.000E+00 RBM=4.083E+00
+ RE =1.522E-01 RC =6.141E+00 CJE=5.858E-13 VJE=7.973E-01
+ MJE=4.950E-01 TF =1.874E-11 XTF=1.873E+01 VTF=2.825E+00
+ ITF=2.196E-01 PTF=0.000E+00 CJC=5.143E-13 VJC=8.046E-01
+ MJC=4.931E-01 XCJC=1.71E-01 TR =1.069E-09 CJS=8.567E-13
+ VJS=5.723E-01 MJS=4.105E-01 FC =9.765E-01
*
.MODEL QOUTN2 NPN
+ IS =1.880E-15 BF =3.239E+02 NF =1.000E+00 VAF=8.457E+01
+ IKF=2.182E-01 ISE=2.620E-16 NE =1.197E+00 BR =3.971E+01
+ NR =1.000E+00 VAR=1.696E+00 IKR=3.513E-01 ISC=1.348E-18
+ NC =1.700E+00 RB =3.267E+01 IRB=0.000E+00 RBM=2.670E+01
+ RE =1.006E+01 RC =3.738E+00 CJE=1.408E-12 VJE=7.973E-01
+ MJE=4.950E-01 TF =1.871E-11 XTF=1.873E+01 VTF=2.825E+00
+ ITF=5.278E-01 PTF=0.000E+00 CJC=1.224E-12 VJC=8.046E-01
+ MJC=4.931E-01 XCJC=9.27E-01 TR =1.296E-09 CJS=1.496E-12
+ VJS=5.723E-01 MJS=4.105E-01 FC =9.765E-01
*
.MODEL QINP PNP
+ IS =1.652E-16 BF =7.165E+01 NF =1.000E+00 VAF=1.720E+01
+ IKF=1.882E-02 ISE=6.380E-16 NE =1.366E+00 BR =1.833E+01
+ NR =1.000E+00 VAR=1.805E+00 IKR=1.321E-01 ISC=3.666E-18
+ NC =1.634E+00 RB =7.876E+01 IRB=0.000E+00 RBM=5.757E+01
+ RE =6.118E-01 RC =3.739E+01 CJE=1.588E-13 VJE=7.975E-01
+ MJE=5.000E-01 TF =3.156E-11 XTF=5.386E+00 VTF=2.713E+00
+ ITF=5.084E-02 PTF=0.000E+00 CJC=2.725E-13 VJC=7.130E-01
+ MJC=4.200E-01 XCJC=8.61E-01 TR =1.096E-09 CJS=1.136E-12
+ VJS=6.691E-01 MJS=0.000E+00 FC =8.803E-01
*
.MODEL QOUTP1 PNP
+ IS =4.744E-16 BF =7.165E+01 NF =1.000E+00 VAF=3.439E+01
+ IKF=6.940E-02 ISE=2.353E-15 NE =1.366E+00 BR =1.948E+01
+ NR =1.000E+00 VAR=1.805E+00 IKR=4.873E-01 ISC=1.322E-17