* ///////////////////////////////////////////////////////////////////
* User Notes:
*
* 1. Input resistance (Rin) for these JFET op amps is 1TOhm.  Rin is
*    modeled by assuming the option GMIN=1TOhm.  If a different (non-
*    default) GMIN value is needed, users may recalculate as follows:
*    Rin=(R1||GMIN+R2||GMIN), where R1=R2,
*    to maintain a consistent Rin model.

*//////////////////////////////////////////////////////////
*LF155 Monolithic JFET-Input OP-AMP MACRO-MODEL
*//////////////////////////////////////////////////////////
*
* connections:     non-inverting input
*                  |   inverting input
*                  |   |   positive power supply
*                  |   |   |   negative power supply
*                  |   |   |   |   output
*                  |   |   |   |   |
*                  |   |   |   |   |
.SUBCKT LF155_NSC  1   2  99  50  28
*
*Features:
*Low input bias current =             30pA
*Low input offset current =            3pA
*High input impedance =              1Tohm
*Low input offset voltage =            1mV
*NOTE:Asymetrical slew rate not modeled.
*Use default gm=1e12
****************INPUT STAGE************** 
*
IOS 2 1 3P
*^Input offset current
R1 1 3 1E12
R2 3 2 1E12
I1 99 4 100U
J1 5 2 4 JX
J2 6 7 4 JX
R3 5 50 20K
R4 6 50 20K
*Fp2=20 MHz
C4 5 6 1.9894E-13
*
***********COMMON MODE EFFECT***********
*
I2 99 50 1.65MA
*^Quiescent supply current
EOS 7 1 POLY(1) 16 49 3E-3 1
*Input offset voltage.^
R8 99 49 50K
R9 49 50 50K
*
*********OUTPUT VOLTAGE LIMITING********
V2 99 8 2.63
D1 9 8 DX
D2 10 9 DX
V3 10 50 2.63
*
**************SECOND STAGE**************
*
EH 99 98 99 49 1
F1 9 98 POLY(1) VA3 0 0 0 9.6796E7
G1 98 9 5 6 2E-3
R5 98 9 100MEG
VA3 9 11 0
*Fp1=23.7 HZ
C3 98 11 67.154P
*********COMMON-MODE ZERO STAGE*********
*
G4 98 16 3 49 1E-8
L2 98 17 530.52M
R13 17 16 1K
*
**************OUTPUT STAGE**************
*
F6  99 50 VA7 1
F5  99 23 VA8 1
D5  21 23 DX
VA7 99 21 0
D6  23 99 DX
E1  99 26 99 9 1
VA8 26 27 0
R16 27 28 25
V5  28 25 -.1V
D4  25  9 DX
V4  24 28 -.1V
D3   9 24 DX
*
***************MODELS USED**************
*
.MODEL DX D(IS=1E-15)
.MODEL JX PJF(BETA=1.25E-5 VTO=-2.00 IS=30E-12)
*
.ENDS*//////////////////////////////////////////////////////////
*LF156 Monolithic JFET-Input OP-AMP MACRO-MODEL
*//////////////////////////////////////////////////////////
*
* connections:     non-inverting input
*                  |   inverting input
*                  |   |   positive power supply
*                  |   |   |   negative power supply
*                  |   |   |   |   output
*                  |   |   |   |   |
*                  |   |   |   |   |
.SUBCKT LF156_NSC  1   2  99  50  28
*
*Features:
*Low input bias current =             30pA
*Low input offset current =            3pA
*High input impedance =              1Tohm
*Low input offset voltage =            1mV
*
****************INPUT STAGE************** 
*
IOS 2 1 3P
*^Input offset current
R1 1 3 1E12
R2 3 2 1E12
I1 99 4 100U
J1 5 2 4 JX
J2 6 7 4 JX
R3 5 50 20K
R4 6 50 20K
*Fp2=20 MHz
C4 5 6 1.9894E-13
*
***********COMMON MODE EFFECT***********
*
I2 99 50 4.65MA
*^Quiescent supply current
EOS 7 1 POLY(1) 16 49 3E-3 1
*Input offset voltage.^
R8 99 49 50K
R9 49 50 50K
*
*********OUTPUT VOLTAGE LIMITING********
V2 99 8 2.63
D1 9 8 DX
D2 10 9 DX
V3 10 50 2.63
*
**************SECOND STAGE**************
*
EH 99 98 99 49 1
F1 9 98 POLY(1) VA3 0 0 0 1.5944E7
G1 98 9 5 6 2E-3
R5 98 9 100MEG
VA3 9 11 0
*Fp1=31.96 HZ
C3 98 11 49.9798P
*
*********COMMON-MODE ZERO STAGE*********
*
G4 98 16 3 49 1E-8
L2 98 17 530.52M
R13 17 16 1K
*
**************OUTPUT STAGE**************
*
F6  99 50 VA7 1
F5  99 23 VA8 1
D5  21 23 DX
VA7 99 21 0
D6  23 99 DX
E1  99 26 99 9 1
VA8 26 27 0
R16 27 28 20
V5  28 25 -.25
D4  25  9 DX
V4  24 28 -.25
D3   9 24 DX
*
***************MODELS USED**************
*
.MODEL DX D(IS=1E-15)
.MODEL JX PJF(BETA=1.25E-5 VTO=-2.00 IS=30E-12)
*
.ENDS*//////////////////////////////////////////////////////////
*LF157 Monolithic JFET-Input OP-AMP MACRO-MODEL
*//////////////////////////////////////////////////////////
*
* connections:     non-inverting input
*                  |   inverting input
*                  |   |   positive power supply
*                  |   |   |   negative power supply
*                  |   |   |   |   output
*                  |   |   |   |   |
*                  |   |   |   |   |
.SUBCKT LF157_NSC  1   2  99  50  28
*
*Features:
*Low input bias current =             30pA
*Low input offset current =            3pA
*High input impedance =              1Tohm
*Low input offset voltage =            1mV
*
****************INPUT STAGE************** 
*
IOS 2 1 3P
*^Input offset current
R1 1 3 1E12
R2 3 2 1E12
I1 99 4 100U
J1 5 2 4 JX
J2 6 7 4 JX
R3 5 50 20K
R4 6 50 20K
*Fp2=12 MHz
C4 5 6 3.31573E-13
*
***********COMMON MODE EFFECT***********
*
I2 99 50 4.65MA
*^Quiescent supply current
EOS 7 1 POLY(1) 16 49 3E-3 1
*Input offset voltage.^
R8 99 49 50K
R9 49 50 50K
*
*********OUTPUT VOLTAGE LIMITING********
V2 99 8 2.63
D1 9 8 DX
D2 10 9 DX
V3 10 50 2.63
*
**************SECOND STAGE**************
*
EH 99 98 99 49 1
F1 9 98 POLY(1) VA3 0 0 0 8.1291E7
G1 98 9 5 6 2E-3
R5 98 9 100MEG
VA3 9 11 0
*Fp1=224 HZ
C3 98 11 7.10513P
*
***************POLE STAGE***************
*
*Fp3=42 MHz
G3 98 15 9 49 1E-6
R12 98 15 1MEG
C5 98 15 8.3766E-15
*
*********COMMON-MODE ZERO STAGE*********
*
G4 98 16 3 49 1E-8
L2 98 17 530.52M
R13 17 16 1K
*
**************OUTPUT STAGE**************
*
F6  99 50 VA7 1
F5  99 23 VA8 1
D5  21 23 DX
VA7 99 21 0
D6  23 99 DX
E1  99 26 99 15 1
VA8 26 27 0
R16 27 28 25
V5  28 25 0.1V
D4  25 15 DX
V4  24 28 0.1V
D3  15 24 DX
*
***************MODELS USED**************
*
.MODEL DX D(IS=1E-15)
.MODEL JX PJF(BETA=1.25E-5 VTO=-2.00 IS=30E-12)
*
.ENDS*//////////////////////////////////////////////////////////
*LF255 Monolithic JFET-Input OP-AMP MACRO-MODEL
*//////////////////////////////////////////////////////////
*
* connections:     non-inverting input
*                  |   inverting input
*                  |   |   positive power supply
*                  |   |   |   negative power supply
*                  |   |   |   |   output
*                  |   |   |   |   |
*                  |   |   |   |   |
.SUBCKT LF255_NSC  1   2  99  50  28
*
*Features:
*Low input bias current =             30pA
*Low input offset current =            3pA
*High input impedance =              1Tohm
*Low input offset voltage =            1mV
*NOTE:Asymetrical slew rate not modeled.
*
****************INPUT STAGE************** 
*
IOS 2 1 3P
*^Input offset current
R1 1 3 1E12
R2 3 2 1E12
I1 99 4 100U
J1 5 2 4 JX
J2 6 7 4 JX
R3 5 50 20K
R4 6 50 20K
*Fp2=20 MHz
C4 5 6 1.9894E-13
*
***********COMMON MODE EFFECT***********
*
I2 99 50 1.65MA
*^Quiescent supply current
EOS 7 1 POLY(1) 16 49 3E-3 1
*Input offset voltage.^
R8 99 49 50K
R9 49 50 50K
*
*********OUTPUT VOLTAGE LIMITING********
V2 99 8 2.63
D1 9 8 DX
D2 10 9 DX
V3 10 50 2.63
*
**************SECOND STAGE**************
*
EH 99 98 99 49 1
F1 9 98 POLY(1) VA3 0 0 0 9.6796E7
G1 98 9 5 6 2E-3
R5 98 9 100MEG
VA3 9 11 0
*Fp1=23.7 HZ
C3 98 11 67.154P
*
*********COMMON-MODE ZERO STAGE*********
*
G4 98 16 3 49 1E-8
L2 98 17 530.52M
R13 17 16 1K
*
**************OUTPUT STAGE**************
*
F6  99 50 VA7 1
F5  99 23 VA8 1
D5  21 23 DX
VA7 99 21 0
D6  23 99 DX
E1  99 26 99 9 1
VA8 26 27 0
R16 27 28 25
V5  28 25 -.1V
D4  25  9 DX
V4  24 28 -.1V
D3   9 24 DX
*
***************MODELS USED**************
*
.MODEL DX D(IS=1E-15)
.MODEL JX PJF(BETA=1.25E-5 VTO=-2.00 IS=30E-12)
*
.ENDS*//////////////////////////////////////////////////////////
*LF256 Monolithic JFET-Input OP-AMP MACRO-MODEL
*//////////////////////////////////////////////////////////
*
* connections:     non-inverting input
*                  |   inverting input
*                  |   |   positive power supply
*                  |   |   |   negative power supply
*                  |   |   |   |   output
*                  |   |   |   |   |
*                  |   |   |   |   |
.SUBCKT LF256_NSC  1   2  99  50  28
*
*Features:
*Low input bias current =             30pA
*Low input offset current =            3pA
*High input impedance =              1Tohm
*Low input offset voltage =            1mV
*
****************INPUT STAGE************** 
*
IOS 2 1 3P
*^Input offset current
R1 1 3 1E12
R2 3 2 1E12
I1 99 4 100U
J1 5 2 4 JX
J2 6 7 4 JX
R3 5 50 20K
R4 6 50 20K
*Fp2=20 MHz
C4 5 6 1.9894E-13
*
***********COMMON MODE EFFECT***********
*
I2 99 50 4.65MA
*^Quiescent supply current
EOS 7 1 POLY(1) 16 49 3E-3 1
*Input offset voltage.^
R8 99 49 50K
R9 49 50 50K
*
*********OUTPUT VOLTAGE LIMITING********
V2 99 8 2.63
D1 9 8 DX
D2 10 9 DX
V3 10 50 2.63
*
**************SECOND STAGE**************
*
EH 99 98 99 49 1
F1 9 98 POLY(1) VA3 0 0 0 1.5944E7
G1 98 9 5 6 2E-3
R5 98 9 100MEG
VA3 9 11 0
*Fp1=31.96 HZ
C3 98 11 49.9798P
*
*********COMMON-MODE ZERO STAGE*********
*
G4 98 16 3 49 1E-8
L2 98 17 530.52M
R13 17 16 1K
*
**************OUTPUT STAGE**************
*
F6  99 50 VA7 1
F5  99 23 VA8 1
D5  21 23 DX
VA7 99 21 0
D6  23 99 DX
E1  99 26 99 9 1
VA8 26 27 0
R16 27 28 20
V5  28 25 -.25V
D4  25  9 DX
V4  24 28 -.25V
D3   9 24 DX
*
***************MODELS USED**************
*
.MODEL DX D(IS=1E-15)
.MODEL JX PJF(BETA=1.25E-5 VTO=-2.00 IS=30E-12)
*
.ENDS*//////////////////////////////////////////////////////////
*LF257 Monolithic JFET-Input OP-AMP MACRO-MODEL
*//////////////////////////////////////////////////////////
*
* connections:     non-inverting input
*                  |   inverting input
*                  |   |   positive power supply
*                  |   |   |   negative power supply
*                  |   |   |   |   output
*                  |   |   |   |   |
*                  |   |   |   |   |
.SUBCKT LF257_NSC  1   2  99  50  28
*
*Features:
*Low input bias current =             30pA
*Low input offset current =            3pA
*High input impedance =              1Tohm
*Low input offset voltage =            1mV
*
****************INPUT STAGE************** 
*
IOS 2 1 3P
*^Input offset current
R1 1 3 1E12
R2 3 2 1E12
I1 99 4 100U
J1 5 2 4 JX
J2 6 7 4 JX
R3 5 50 20K
R4 6 50 20K
*Fp2=12 MHz
C4 5 6 3.31573E-13
*
***********COMMON MODE EFFECT***********
*
I2 99 50 4.65MA
*^Quiescent supply current
EOS 7 1 POLY(1) 16 49 3E-3 1
*Input offset voltage.^
R8 99 49 50K
R9 49 50 50K
*
*********OUTPUT VOLTAGE LIMITING********
V2 99 8 2.63
D1 9 8 DX
D2 10 9 DX
V3 10 50 2.63
*
**************SECOND STAGE**************
*
EH 99 98 99 49 1
F1 9 98 POLY(1) VA3 0 0 0 8.1291E7
G1 98 9 5 6 2E-3
R5 98 9 100MEG
VA3 9 11 0
*Fp1=224 HZ
C3 98 11 7.10513P
*
***************POLE STAGE***************
*
*Fp3=42 MHz
G3 98 15 9 49 1E-6
R12 98 15 1MEG
C5 98 15 8.3766E-15
*
*********COMMON-MODE ZERO STAGE*********
*
G4 98 16 3 49 1E-8
L2 98 17 530.52M
R13 17 16 1K
*
**************OUTPUT STAGE**************
*
F6  99 50 VA7 1
F5  99 23 VA8 1
D5  21 23 DX
VA7 99 21 0
D6  23 99 DX
E1  99 26 99 15 1
VA8 26 27 0
R16 27 28 25
V5  28 25 0.1V
D4  25 15 DX
V4  24 28 0.1V
D3  15 24 DX
*
***************MODELS USED**************
*
.MODEL DX D(IS=1E-15)
.MODEL JX PJF(BETA=1.25E-5 VTO=-2.00 IS=30E-12)
*
.ENDS*LF347
*Quad WideBW JFET OpAmp pkg:DIP14 (A:3,2,4,11,1)(B:5,6,4,11,7)(C:10,9,4,11,8)(D:12,13,4,11,14)
*
* Connections: 
*               Non-Inverting Input
*               | Inverting Input
*               | | Positive Power Supply
*               | | | Negative Power Supply
*               | | | | Output
*               | | | | |
.SUBCKT LF347   1 2 3 4 5
  C1   11 12 3.498E-12
  C2    6  7 15E-12
  DC    5 53 DX
  DE   54  5 DX
  DLP  90 91 DX
  DLN  92 90 DX
  DP    4  3 DX
  BGND 99  0 V=V(3)*.5 + V(4)*.5
  BB    7 99 I=I(VB)*14.15E6 - I(VC)*10E6 + I(VE)*10E6 +
+              I(VLP)*10E6 - I(VLN)*10E6
  GA    6  0 11 12 282.8E-6
  GCM   0  6 10 99 1.59E-9
  ISS   3 10 DC 195.0E-6
  HLIM 90  0 VLIM 1K
  J1   11  2 10 JX
  J2   12  1 10 JX
  R2    6  9 100E3
  RD1   4 11 3.536E3
  RD2   4 12 3.536E3
  RO1   8  5 50
  RO2   7 99 25
  RP    3  4 15E3
  RSS  10 99 1.026E6
  VB    9  0 DC 0
  VC    3 53 DC 2.2
  VE   54  4 DC 2.2
  VLIM  7  8 DC 0
  VLP  91  0 DC 25
  VLN   0 92 DC 25
.MODEL DX D(IS=800E-18)
.MODEL JX PJF(IS=25E-12 BETA=235.1E-6 VTO=-1)
.ENDS LF347*//////////////////////////////////////////////////////////
*LF351 Wide Bandwidth JFET-Input OP-AMP MACRO-MODEL
*//////////////////////////////////////////////////////////
*
* connections:     non-inverting input
*                  |   inverting input
*                  |   |   positive power supply
*                  |   |   |   negative power supply
*                  |   |   |   |   output
*                  |   |   |   |   |
*                  |   |   |   |   |
.SUBCKT LF351_NSC  1   2  99  50  28
*
*Features:
*Low supply current =                1.8mA
*Wide bandwidth =                     4MHz
*High slew rate =                   13V/uS
*Low offset voltage =                 10mV
*
****************INPUT STAGE************** 
*
IOS 2 1 25P
*^Input offset current
R1 1 3 1E12
R2 3 2 1E12
I1 99 4 100U
J1 5 2 4 JX
J2 6 7 4 JX
R3 5 50 20K
R4 6 50 20K
*Fp2=12 MHz
C4 5 6 3.31573E-13
*
***********COMMON MODE EFFECT***********
*
I2 99 50 1.7MA
*^Quiescent supply current
EOS 7 1 POLY(1) 16 49 5E-3 1
*Input offset voltage.^
R8 99 49 50K
R9 49 50 50K
*
*********OUTPUT VOLTAGE LIMITING********
V2 99 8 2.13
D1 9 8 DX
D2 10 9 DX
V3 10 50 2.13
*
**************SECOND STAGE**************
*
EH 99 98 99 49 1
F1 9 98 POLY(1) VA3 0 0 0 1.0985E7
G1 98 9 5 6 1E-3
R5 98 9 100MEG
VA3 9 11 0
*Fp1=40.3 HZ
C3 98 11 39.493P
*
***************POLE STAGE***************
*
*Fp3=42 MHz
G3 98 15 9 49 1E-6
R12 98 15 1MEG
C5 98 15 3.7894E-15
*
*********COMMON-MODE ZERO STAGE*********
*
G4 98 16 3 49 1E-8
L2 98 17 31.831M
R13 17 16 1K
*
**************OUTPUT STAGE**************
*
F6  99 50 VA7 1
F5  99 23 VA8 1
D5  21 23 DX
VA7 99 21 0
D6  23 99 DX
E1  99 26 99 15 1
VA8 26 27 0
R16 27 28 35
V5  28 25 0.1V
D4  25 15 DX
V4  24 28 0.1V
D3  15 24 DX
*
***************MODELS USED**************
*
.MODEL DX D(IS=1E-15)
.MODEL JX PJF(BETA=1.25E-5 VTO=-2.00 IS=50E-12)
*
.ENDS*//////////////////////////////////////////////////////////
*LF353 Wide Bandwidth Dual JFET-Input OP-AMP MACRO-MODEL
*//////////////////////////////////////////////////////////
*
* connections:     non-inverting input
*                  |   inverting input
*                  |   |   positive power supply
*                  |   |   |   negative power supply
*                  |   |   |   |   output
*                  |   |   |   |   |
*                  |   |   |   |   |
.SUBCKT LF353_NSC  1   2  99  50  28
*
*Features:
*Low supply current =                1.8mA
*Wide bandwidth =                     4MHz
*High slew rate =                   13V/uS
*Low offset voltage =                 10mV
*
*NOTE: Model is for single device only and simulated
*      supply current is 1/2 of total device current.
*
****************INPUT STAGE************** 
*
IOS 2 1 25P
*^Input offset current
R1 1 3 1E12
R2 3 2 1E12
I1 99 4 100U
J1 5 2 4 JX
J2 6 7 4 JX
R3 5 50 20K
R4 6 50 20K
*Fp2=12 MHz
C4 5 6 3.31573E-13
*
***********COMMON MODE EFFECT***********
*
I2 99 50 1.7MA
*^Quiescent supply current
EOS 7 1 POLY(1) 16 49 5E-3 1
*Input offset voltage.^
R8 99 49 50K
R9 49 50 50K
*
*********OUTPUT VOLTAGE LIMITING********
V2 99 8 2.13
D1 9 8 DX
D2 10 9 DX
V3 10 50 2.13
*
**************SECOND STAGE**************
*
EH 99 98 99 49 1
F1 9 98 POLY(1) VA3 0 0 0 1.0985E7
G1 98 9 5 6 1E-3
R5 98 9 100MEG
VA3 9 11 0
*Fp1=40.3 HZ
C3 98 11 39.493P
*
***************POLE STAGE***************
*
*Fp3=42 MHz
G3 98 15 9 49 1E-6
R12 98 15 1MEG
C5 98 15 3.7894E-15
*
*********COMMON-MODE ZERO STAGE*********
*
G4 98 16 3 49 1E-8
L2 98 17 31.831M
R13 17 16 1K
*
**************OUTPUT STAGE**************
*
F6  99 50 VA7 1
F5  99 23 VA8 1
D5  21 23 DX
VA7 99 21 0
D6  23 99 DX
E1  99 26 99 15 1
VA8 26 27 0
R16 27 28 35
V5  28 25 0.1V
D4  25 15 DX
V4  24 28 0.1V
D3  15 24 DX
*
***************MODELS USED**************
*
.MODEL DX D(IS=1E-15)
.MODEL JX PJF(BETA=1.25E-5 VTO=-2.00 IS=50E-12)
*
.ENDS*//////////////////////////////////////////////////////////
*LF355 Monolithic JFET-Input OP-AMP MACRO-MODEL
*//////////////////////////////////////////////////////////
*
* connections:     non-inverting input
*                  |   inverting input
*                  |   |   positive power supply
*                  |   |   |   negative power supply
*                  |   |   |   |   output
*                  |   |   |   |   |
*                  |   |   |   |   |
.SUBCKT LF355_NSC  1   2  99  50  28
*
*Features:
*Low input bias current =             30pA
*Low input offset current =            3pA
*High input impedance =              1Tohm
*Low input offset voltage =            1mV
*NOTE:Asymetrical slew rate not modeled.
*
****************INPUT STAGE************** 
*
IOS 2 1 3P
*^Input offset current
R1 1 3 1E12
R2 3 2 1E12
I1 99 4 100U
J1 5 2 4 JX
J2 6 7 4 JX
R3 5 50 20K
R4 6 50 20K
*Fp2=20 MHz
C4 5 6 1.9894E-13
*
***********COMMON MODE EFFECT***********
*
I2 99 50 1.65MA
*^Quiescent supply current
EOS 7 1 POLY(1) 16 49 3E-3 1
*Input offset voltage.^
R8 99 49 50K
R9 49 50 50K
*
*********OUTPUT VOLTAGE LIMITING********
V2 99 8 2.63
D1 9 8 DX
D2 10 9 DX
V3 10 50 2.63
*
**************SECOND STAGE**************
*
EH 99 98 99 49 1
F1 9 98 POLY(1) VA3 0 0 0 9.6796E7
G1 98 9 5 6 2E-3
R5 98 9 100MEG
VA3 9 11 0
*Fp1=23.7 HZ
C3 98 11 67.154P
*
*********COMMON-MODE ZERO STAGE*********
*
G4 98 16 3 49 1E-8
L2 98 17 530.52M
R13 17 16 1K
*
**************OUTPUT STAGE**************
*
F6  99 50 VA7 1
F5  99 23 VA8 1
D5  21 23 DX
VA7 99 21 0
D6  23 99 DX
E1  99 26 99 9 1
VA8 26 27 0
R16 27 28 25
V5  28 25 -.1V
D4  25  9 DX
V4  24 28 -.1V
D3   9 24 DX
*
***************MODELS USED**************
*
.MODEL DX D(IS=1E-15)
.MODEL JX PJF(BETA=1.25E-5 VTO=-2.00 IS=30E-12)
*
.ENDS*//////////////////////////////////////////////////////////
*LF356 Monolithic JFET-Input OP-AMP MACRO-MODEL
*//////////////////////////////////////////////////////////
*
* connections:     non-inverting input
*                  |   inverting input
*                  |   |   positive power supply
*                  |   |   |   negative power supply
*                  |   |   |   |   output
*                  |   |   |   |   |
*                  |   |   |   |   |
.SUBCKT LF356_NSC  1   2  99  50  28
*
*Features:
*Low input bias current =             30pA
*Low input offset current =            3pA
*High input impedance =              1Tohm
*Low input offset voltage =            1mV
*
****************INPUT STAGE************** 
*
IOS 2 1 3P
*^Input offset current
R1 1 3 1E12
R2 3 2 1E12
I1 99 4 100U
J1 5 2 4 JX
J2 6 7 4 JX
R3 5 50 20K
R4 6 50 20K
*Fp2=20 MHz
C4 5 6 1.9894E-13
*
***********COMMON MODE EFFECT***********
*
I2 99 50 4.65MA
*^Quiescent supply current
EOS 7 1 POLY(1) 16 49 3E-3 1
*Input offset voltage.^
R8 99 49 50K
R9 49 50 50K
*
*********OUTPUT VOLTAGE LIMITING********
V2 99 8 2.63
D1 9 8 DX
D2 10 9 DX
V3 10 50 2.63
*
**************SECOND STAGE**************
*
EH 99 98 99 49 1
F1 9 98 POLY(1) VA3 0 0 0 1.5944E7
G1 98 9 5 6 2E-3
R5 98 9 100MEG
VA3 9 11 0
*Fp1=31.96 HZ
C3 98 11 49.9798P
*
*********COMMON-MODE ZERO STAGE*********
*
G4 98 16 3 49 1E-8
L2 98 17 530.52M
R13 17 16 1K
*
**************OUTPUT STAGE**************
*
F6  99 50 VA7 1
F5  99 23 VA8 1
D5  21 23 DX
VA7 99 21 0
D6  23 99 DX
E1  99 26 99 9 1
VA8 26 27 0
R16 27 28 20
V5  28 25 -.25V
D4  25  9 DX
V4  24 28 -.25V
D3   9 24 DX
*
***************MODELS USED**************
*
.MODEL DX D(IS=1E-15)
.MODEL JX PJF(BETA=1.25E-5 VTO=-2.00 IS=30E-12)
*
.ENDS*//////////////////////////////////////////////////////////
*LF357 Monolithic JFET-Input OP-AMP MACRO-MODEL
*//////////////////////////////////////////////////////////
*
* connections:     non-inverting input
*                  |   inverting input
*                  |   |   positive power supply
*                  |   |   |   negative power supply
*                  |   |   |   |   output
*                  |   |   |   |   |
*                  |   |   |   |   |
.SUBCKT LF357_NSC  1   2  99  50  28
*
*Features:
*Low input bias current =             30pA
*Low input offset current =            3pA
*High input impedance =              1Tohm
*Low input offset voltage =            1mV
*
****************INPUT STAGE************** 
*
IOS 2 1 3P
*^Input offset current
R1 1 3 1E12
R2 3 2 1E12
I1 99 4 100U
J1 5 2 4 JX
J2 6 7 4 JX
R3 5 50 20K
R4 6 50 20K
*Fp2=12 MHz
C4 5 6 3.31573E-13
*
***********COMMON MODE EFFECT***********
*
I2 99 50 4.65MA
*^Quiescent supply current
EOS 7 1 POLY(1) 16 49 3E-3 1
*Input offset voltage.^
R8 99 49 50K
R9 49 50 50K
*
*********OUTPUT VOLTAGE LIMITING********
V2 99 8 2.63
D1 9 8 DX
D2 10 9 DX
V3 10 50 2.63
*
**************SECOND STAGE**************
*
EH 99 98 99 49 1
F1 9 98 POLY(1) VA3 0 0 0 8.1291E7
G1 98 9 5 6 2E-3
R5 98 9 100MEG
VA3 9 11 0
*Fp1=224 HZ
C3 98 11 7.10513P
*
***************POLE STAGE***************
*
*Fp3=42 MHz
G3 98 15 9 49 1E-6
R12 98 15 1MEG
C5 98 15 8.3766E-15
*
*********COMMON-MODE ZERO STAGE*********
*
G4 98 16 3 49 1E-8
L2 98 17 530.52M
R13 17 16 1K
*
**************OUTPUT STAGE**************
*
F6  99 50 VA7 1
F5  99 23 VA8 1
D5  21 23 DX
VA7 99 21 0
D6  23 99 DX
E1  99 26 99 15 1
VA8 26 27 0
R16 27 28 25
V5  28 25 0.1V
D4  25 15 DX
V4  24 28 0.1V
D3  15 24 DX
*
***************MODELS USED**************
*
.MODEL DX D(IS=1E-15)
.MODEL JX PJF(BETA=1.25E-5 VTO=-2.00 IS=30E-12)
*
.ENDS*//////////////////////////////////////////////////////////
*LF411 LOW OFFSET, LOW DRIFT JFET INPUT OP-AMP MACRO-MODEL
*//////////////////////////////////////////////////////////
*
* connections:     non-inverting input
*                  |   inverting input
*                  |   |   positive power supply
*                  |   |   |   negative power supply
*                  |   |   |   |   output
*                  |   |   |   |   |
*                  |   |   |   |   |
.SUBCKT LF411_NSC  1   2  99  50  28
*
*Features:
*Fast settling time (.01%) =           2uS
*High bandwidth =                     3MHz
*High slew rate =                   10V/uS
*Low offset voltage =                 .5mV
*Low supply current =                1.8mA
*
****************INPUT STAGE************** 
*
IOS 2 1 25.0P
*^Input offset current
CI1 1 0 3P
CI2 2 0 3P
R1 1 3 1E12
R2 3 2 1E12
I1 99 4 1.0M
J1 5 2 4 JX
J2 6 7 4 JX
R3 5 50 650
R4 6 50 650
*Fp2=28 MHZ
C4 5 6 4.372P 
*
***********COMMON MODE EFFECT***********
*
I2 99 50 800UA
*^Quiescent supply current
EOS 7 1 POLY(1) 16 49 .8E-3 1
*Input offset voltage.^
R8 99 49 80K
R9 49 50 80K
*
*********OUTPUT VOLTAGE LIMITING********
V2 99 8 2.13
D1 9 8 DX
D2 10 9 DX
V3 10 50 2.13
*
**************SECOND STAGE**************
*
EH 99 98 99 49 1
G1 98 9 5 6 20E-3
R5 98 9 10MEG
VA3 9 11 0
*Fp1=18 HZ
C3 98 11 857.516P
*
***************POLE STAGE***************
*
*Fp=30 MHz
G3 98 15 9 49 1E-6
R12 98 15 1MEG
C5 98 15 5.305E-15
*
*********COMMON-MODE ZERO STAGE*********
*
G4 98 16 3 49 1E-8
L2 98 17 144.7M
R13 17 16 1K
*
**************OUTPUT STAGE**************
*
F6  99 50 VA7 1
F5  99 23 VA8 1
D5  21 23 DX
VA7 99 21 0
D6  23 99 DX
E1  99 26 99 15 1
VA8 26 27 0
R16 27 28 50
V5  28 25 0.646V
D4  25 15 DX
V4  24 28 0.646V
D3  15 24 DX
*
***************MODELS USED**************
*
.MODEL DX D(IS=1E-15)
.MODEL JX PJF(BETA=1.183E-3 VTO=-.65 IS=50E-12)
*
.ENDS*//////////////////////////////////////////////////////////
*LF412 LOW OFFSET, LOW DRIFT DUAL JFET INPUT OP-AMP MODEL
*//////////////////////////////////////////////////////////
*
* connections:     non-inverting input
*                  |   inverting input
*                  |   |   positive power supply
*                  |   |   |   negative power supply
*                  |   |   |   |   output
*                  |   |   |   |   |
*                  |   |   |   |   |
.SUBCKT LF412_NSC  1   2  99  50  28
*
*Features:
*Fast settling time (.01%) =           2uS
*High bandwidth =                     3MHz
*High slew rate =                   10V/uS
*Low offset voltage =                  1mV
*Low supply current =                1.8mA
*NOTE: Model is for single device only and simulated
*      supply current is 1/2 of total device current.
*
****************INPUT STAGE************** 
*
IOS 2 1 25.0P
*^Input offset current
CI1 1 0 3P
CI2 2 0 3P
R1 1 3 1E12
R2 3 2 1E12
I1 99 4 1.0M
J1 5 2 4 JX
J2 6 7 4 JX
R3 5 50 650
R4 6 50 650
*Fp2=28 MHZ
C4 5 6 4.372P 
*
***********COMMON MODE EFFECT***********
*
I2 99 50 800UA
*^Quiescent supply current
EOS 7 1 POLY(1) 16 49 1E-3 1
*Input offset voltage.^
R8 99 49 80K
R9 49 50 80K
*
*********OUTPUT VOLTAGE LIMITING********
V2 99 8 2.13
D1 9 8 DX
D2 10 9 DX
V3 10 50 2.13
*
**************SECOND STAGE**************
*
EH 99 98 99 49 1
G1 98 9 5 6 20E-3
R5 98 9 10MEG
VA3 9 11 0
*Fp1=18 HZ
C3 98 11 857.516P
*
***************POLE STAGE***************
*
*Fp=30 MHz
G3 98 15 9 49 1E-6
R12 98 15 1MEG
C5 98 15 5.305E-15
*
*********COMMON-MODE ZERO STAGE*********
*
G4 98 16 3 49 1E-8
L2 98 17 144.7M
R13 17 16 1K
*
**************OUTPUT STAGE**************
*
F6  99 50 VA7 1
F5  99 23 VA8 1
D5  21 23 DX
VA7 99 21 0
D6  23 99 DX
E1  99 26 99 15 1
VA8 26 27 0
R16 27 28 50
V5  28 25 0.646V
D4  25 15 DX
V4  24 28 0.646V
D3  15 24 DX
*
***************MODELS USED**************
*
.MODEL DX D(IS=1E-15)
.MODEL JX PJF(BETA=1.183E-3 VTO=-.65 IS=50E-12)
*
.ENDS* /////////////////////////////////////////////////////////////
* LF441A Low Offset, Low Power JFET Input Operational Amplifier
* /////////////////////////////////////////////////////////////
*
* Connections:     Non-inverting input
*                  |   Inverting input
*                  |   |   Positive power supply
*                  |   |   |   Negative power supply
*                  |   |   |   |   Output
*                  |   |   |   |   |
*                  |   |   |   |   |
.SUBCKT LF441A_NSC 1   2  99  50  28
*
* Features:
* Low input bias current =             10pA
* High bandwidth =                     1MHz
* High slew rate =                    1V/uS
* Low offset voltage (max) =          0.5mV
* Low supply current =                150uA
*
****************INPUT STAGE************** 
*
* Input offset current     
IOS 2 1 2.5P                  
CI1 1 50 2.5P
CI2 2 50 2.5P
R1 1 3 1E12
R2 3 2 1E12
I1 99 4 100U
IB1 4 7 48P
IB2 4 2 48P
J1 5 2 4 JX
J2 6 7 4 JX
R3 5 50 3.956K
R4 6 50 3.956K
* Fp2=5.02 MHZ
C4 31 6 7P 
R20 31 5 1500
* Fz1=15.1 MHZ
*
***********COMMON MODE EFFECT***********
*
* Supply current    
I2 99 50 44UA                 
* Input offset voltage|
EOS 7 1 POLY(1) 16 49 5E-4 1 
R8 99 49 1.25E6
R9 49 50 1.25E6
*
*********OUTPUT VOLTAGE LIMITING********
V2 99 8 2.63
D1 9 8 DX
D2 10 9 DX
V3 10 50 2.63
D7  22 99 DX
D8  50 22 DX
*
**************SECOND STAGE**************
*
* Level shifter
EH 99 98 99 49 1              
F1 9 98 POLY(1) VA3 0 0 0 2E6
G1 98 9 5 6 20E-3
R5 98 9 10MEG
VA3 9 11 0
* Fp1=11.5 HZ
C3 98 11 1385P
*
***************POLE STAGE***************
*
* Fp3=159 MHz
G3 98 15 9 49 1E-6
R12 98 15 1MEG
C5 98 15 1E-15
*
*********COMMON-MODE ZERO STAGE*********
*
G4 98 16 POLY(2) 1 49 2 49 0 0.5E-8 0.5E-8
L2 98 17 5.1
R13 17 16 1K
*
**************OUTPUT STAGE**************
*
* Supply current correction  
F6 50 99 POLY(1) V6 30U 1     
E1 99 23 99 15 1               
* Output resistance      
R16 24 23 675                
D5 26 24 DX
V6 26 22 0.63V
R17 23 25 250      
D6 25 27 DX
V7 22 27 0.63V
V5 22 30 6.35V
R19 21 30 1.2E6
D4 21 15 DX
V4 29 22 0.63V
R18 20 29 24K
D3 15 20 DX
* Output inductor     
L3 22 28 1U                  
*
***************MODELS USED**************
*
.MODEL DX D(IS=1E-15)
.MODEL JX PJF(BETA=9.201E-5 VTO=-2.33 IS=10E-12 N=3)
*
.ENDS* //////////////////////////////////////////////////////
* LF442A Dual Low Power JFET Input Operational Amplifier
* //////////////////////////////////////////////////////
* jjt 15/3/2001: removed pSpice syntax (gate p-n emission coefficient)
*                from pjf model below: N=3
*
* Connections:     Non-inverting input
*                  |   Inverting input
*                  |   |   Positive power supply
*                  |   |   |   Negative power supply
*                  |   |   |   |   Output
*                  |   |   |   |   |
*                  |   |   |   |   |
.SUBCKT LF442A_NSC 1   2  99  50  28
*
* Features:
* Low input bias current =             10pA
* High bandwidth =                     1MHz
* High slew rate =                    1V/uS
* Low offset voltage (max) =            1mV
* Low supply current =                150uA/Amplifier
*
* Note: Model is for single device only and simulated
*       supply current is 1/2 of total device current.
*