************
*SYM=PB50
* BEGIN OPAMP MACROMODEL PB50
* PINOUT ORDER  IN COM CL OUT +V -V GAIN COMP
*                1   2  3  33  4  5  11   10
.SUBCKT PB50 1 2 3 33 4 5 11 10
Q1 8 1 10 QIN
Q2 8 9 4 QIP
I1 10 5 1.4E-3
RZ1 10 5 200E3
I2 7 5 5E-3
I9 4 5 8E-3
RI9 4 5 25E3
R1 1 2 50E3
R2 2 10 3100
R3 10 11 6200
M1 7 8 13 13 MSS
RG2 13 4 300
CE1 13 4 220E-12
R4 7 5 200E3
C1 7 0 53E-12
R5 4 9 332
R6 8 9 4400
D3 7 16 DD
V1 18 16 5.7
D4 17 7 DD
V2 17 19 5.7
RE1 15 0 0.001
E2 18 0 4 0 1
E3 19 0 5 0 1
E9 12 0 7 0 1
R8 12 20 50
C4 20 15 530E-12
Q3 19 20 21 QOP
Q4 18 20 22 QON
Q5 4 21 29 QON
Q6 5 22 29 QOP
Q7 25 27 33 QLN
Q8 26 28 33 QLP
D5 21 25 DL
D6 26 22 DL
R9 27 3 1E3
R10 28 3 1E3
I3 18 21 2.5E-03
I4 22 19 2.5E-03
R15 29 3 2.25
DC1 29 4 DO
DC2 5 29 DO
.MODEL DO D(CJO=30PF IS=2.10E-14 RS=1.43E-01)
.MODEL DD D(CJO=0.1PF IS=1E-17)
.MODEL DL D(CJO=3PF IS=1E-13)
.MODEL MSS PMOS (KP=1E-02 IS=3E-16 VTO=-2.5)
.MODEL QOP PNP (BF=1200 IS=1E-14)
.MODEL QON NPN (BF=1200 IS=1E-14)
.MODEL QLN NPN (BF=100 IS=1E-11)
.MODEL QLP PNP (BF=100 IS=1E-11)
.MODEL QIN NPN (BF=100 IS=4E-16)
.MODEL QIP PNP (BF=100 IS=4E-16)
* END OF OPAMP MACROMODEL
.ENDS
************
******************
*SYM=PB50
* BEGIN OPAMP MACROMODEL PB51
* PINOUT ORDER  IN COM CL OUT +V -V GAIN COMP
*                1   2  3  33  4  5  11   10
.SUBCKT PB51 1 2 3 33 4 5 11 10
Q1 8 1 10 QIN
Q2 8 9 4 QIP
I1 10 5 1.4E-3
RZ1 10 5 200E3
I2 7 5 5E-3
I9 4 5 8E-3
RI9 4 5 25E3
R1 1 2 50E3
R2 2 10 3100
R3 10 11 6200
M1 7 8 13 13 MSS
RG2 13 4 300
CE1 13 4 220E-12
R4 7 5 200E3
C1 7 0 53E-12
R5 4 9 332
R6 8 9 4400
D3 7 16 DD
V1 18 16 5.7
D4 17 7 DD
V2 17 19 5.7
RE1 15 0 0.001
E2 18 0 4 0 1
E3 19 0 5 0 1
E9 12 0 7 0 1
R8 12 20 50
C4 20 15 530E-12
Q3 19 20 21 QOP
Q4 18 20 22 QON
Q5 4 21 29 QON
Q6 5 22 29 QOP
Q7 25 27 33 QLN
Q8 26 28 33 QLP
D5 21 25 DL
D6 26 22 DL
R9 27 3 1E3
R10 28 3 1E3
I3 18 21 2.5E-03
I4 22 19 2.5E-03
R15 29 3 2.25
DC1 29 4 DO
DC2 5 29 DO
.MODEL DO D(CJO=30PF IS=2.10E-14 RS=1.43E-01)
.MODEL DD D(CJO=0.1PF IS=1E-17)
.MODEL DL D(CJO=3PF IS=1E-13)
.MODEL MSS PMOS (KP=1E-02 IS=3E-16 VTO=-2.5)
.MODEL QOP PNP (BF=700 IS=1E-14)
.MODEL QON NPN (BF=700 IS=1E-14)
.MODEL QLN NPN (BF=100 IS=1E-11)
.MODEL QLP PNP (BF=100 IS=1E-11)
.MODEL QIN NPN (BF=100 IS=4E-16)
.MODEL QIP PNP (BF=100 IS=4E-16)
* END OF OPAMP MACROMODEL
.ENDS
**************
********************
*SYM=PB50
* BEGIN OPAMP MACROMODEL PB51A
* PINOUT ORDER  IN COM CL OUT +V -V GAIN COMP
*                1   2  3  33  4  5  11   10
.SUBCKT PB51A 1 2 3 33 4 5 11 10
Q1 8 1 10 QIN
Q2 8 9 4 QIP
I1 10 5 1.4E-3
RZ1 10 5 200E3
I2 7 5 5E-3
I9 4 5 8E-3
RI9 4 5 25E3
R1 1 2 50E3
R2 2 10 3100
R3 10 11 6200
M1 7 8 13 13 MSS
RG2 13 4 300
CE1 13 4 220E-12
R4 7 5 200E3
C1 7 0 36E-12
R5 4 9 332
R6 8 9 4400
D3 7 16 DD
V1 18 16 5.7
D4 17 7 DD
V2 17 19 5.7
RE1 15 0 0.001
E2 18 0 4 0 1
E3 19 0 5 0 1
E9 12 0 7 0 1
R8 12 20 50
C4 20 15 355E-12
Q3 19 20 21 QOP
Q4 18 20 22 QON
Q5 4 21 29 QON
Q6 5 22 29 QOP
Q7 25 27 33 QLN
Q8 26 28 33 QLP
D5 21 25 DL
D6 26 22 DL
R9 27 3 1E3
R10 28 3 1E3
I3 18 21 2.5E-03
I4 22 19 2.5E-03
R15 29 3 2.25
DC1 29 4 DO
DC2 5 29 DO
.MODEL DO D(CJO=30PF IS=2.10E-14 RS=1.43E-01)
.MODEL DD D(CJO=0.1PF IS=1E-17)
.MODEL DL D(CJO=3PF IS=1E-13)
.MODEL MSS PMOS (KP=1E-02 IS=3E-16 VTO=-2.5)
.MODEL QOP PNP (BF=933 IS=1E-14)
.MODEL QON NPN (BF=933 IS=1E-14)
.MODEL QLN NPN (BF=100 IS=1E-11)
.MODEL QLP PNP (BF=100 IS=1E-11)
.MODEL QIN NPN (BF=100 IS=4E-16)
.MODEL QIP PNP (BF=100 IS=4E-16)
* END OF OPAMP MACROMODEL
.ENDS
******************
************
*SYM=PB50
* BEGIN OPAMP MACROMODEL PB58
* PINOUT ORDER  IN COM CL OUT +V -V GAIN COMP
*                1   2  3  33  4  5  11   10
.SUBCKT PB58 1 2 3 33 4 5 11 10
Q1 8 1 10 QIN
Q2 8 9 4 QIP
I1 10 5 1.4E-3
RZ1 10 5 200E3
I2 7 5 5E-3
I9 4 5 8E-3
RI9 4 5 25E3
R1 1 2 50E3
R2 2 10 3100
R3 10 11 6200
M1 7 8 13 13 MSS
RG2 13 4 300
CE1 13 4 220E-12
R4 7 5 200E3
C1 7 0 53E-12
R5 4 9 332
R6 8 9 4400
D3 7 16 DD
V1 18 16 5.7
D4 17 7 DD
V2 17 19 5.7
RE1 15 0 0.001
E2 18 0 4 0 1
E3 19 0 5 0 1
E9 12 0 7 0 1
R8 12 20 50
C4 20 15 530E-12
Q3 19 20 21 QOP
Q4 18 20 22 QON
Q5 4 21 29 QON
Q6 5 22 29 QOP
Q7 25 27 33 QLN
Q8 26 28 33 QLP
D5 21 25 DL
D6 26 22 DL
R9 27 3 1E3
R10 28 3 1E3
I3 18 21 2.5E-03
I4 22 19 2.5E-03
R15 29 3 2.25
DC1 29 4 DO
DC2 5 29 DO
.MODEL DO D(CJO=30PF IS=2.10E-14 RS=1.43E-01)
.MODEL DD D(CJO=0.1PF IS=1E-17)
.MODEL DL D(CJO=3PF IS=1E-13)
.MODEL MSS PMOS (KP=1E-02 IS=3E-16 VTO=-2.5)
.MODEL QOP PNP (BF=700 IS=1E-14)
.MODEL QON NPN (BF=700 IS=1E-14)
.MODEL QLN NPN (BF=100 IS=1E-11)
.MODEL QLP PNP (BF=100 IS=1E-11)
.MODEL QIN NPN (BF=100 IS=4E-16)
.MODEL QIP PNP (BF=100 IS=4E-16)
* END OF OPAMP MACROMODEL
.ENDS
************
***********
*SYM=PB50
* BEGIN OPAMP MACROMODEL PB58A
* PINOUT ORDER  IN COM CL OUT +V -V GAIN COMP
*                1   2  3  33  4  5  11   10
.SUBCKT PB58A 1 2 3 33 4 5 11 10
Q1 8 1 10 QIN
Q2 8 9 4 QIP
I1 10 5 1.4E-3
RZ1 10 5 200E3
I2 7 5 5E-3
I9 4 5 8E-3
RI9 4 5 25E3
R1 1 2 50E3
R2 2 10 3100
R3 10 11 6200
M1 7 8 13 13 MSS
RG2 13 4 300
CE1 13 4 220E-12
R4 7 5 200E3
C1 7 0 36E-12
R5 4 9 332
R6 8 9 4400
D3 7 16 DD
V1 18 16 5.7
D4 17 7 DD
V2 17 19 5.7
RE1 15 0 0.001
E2 18 0 4 0 1
E3 19 0 5 0 1
E9 12 0 7 0 1
R8 12 20 50
C4 20 15 355E-12
Q3 19 20 21 QOP
Q4 18 20 22 QON
Q5 4 21 29 QON
Q6 5 22 29 QOP
Q7 25 27 33 QLN
Q8 26 28 33 QLP
D5 21 25 DL
D6 26 22 DL
R9 27 3 1E3
R10 28 3 1E3
I3 18 21 2.5E-03
I4 22 19 2.5E-03
R15 29 3 2.25
DC1 29 4 DO
DC2 5 29 DO
.MODEL DO D(CJO=30PF IS=2.10E-14 RS=1.43E-01)
.MODEL DD D(CJO=0.1PF IS=1E-17)
.MODEL DL D(CJO=3PF IS=1E-13)
.MODEL MSS PMOS (KP=1E-02 IS=3E-16 VTO=-2.5)
.MODEL QOP PNP (BF=933 IS=1E-14)
.MODEL QON NPN (BF=933 IS=1E-14)
.MODEL QLN NPN (BF=100 IS=1E-11)
.MODEL QLP PNP (BF=100 IS=1E-11)
.MODEL QIN NPN (BF=100 IS=4E-16)
.MODEL QIP PNP (BF=100 IS=4E-16)
* END OF OPAMP MACROMODEL
.ENDS
************
