.SUBCKT PESD1LIN 1 2
D1 22 1 DIODE1
D2 22 2 DIODE2
.MODEL DIODE1 D
+ IS = 9.79E-015
+ N = 1.101
+ BV = 18
+ IBV = 0.005
+ RS = 0.3363
+ CJO = 3.17E-011
+ VJ = 0.6421
+ M = 0.3327
+ FC = 0.5
.MODEL DIODE2 D
+ IS = 9.794E-015
+ N = 1.101
+ BV = 27
+ IBV = 0.002
+ RS = 0.3363
+ CJO = 2.233E-011
+ VJ = 0.7107
+ M = 0.3546
+ FC = 0.5
.ENDS