.SUBCKT PESD1LIN_AB 1 2
R1 1 22 5E+011
R2 2 22 1E+013
D1 22 1 DIODE1
D2 22 2 DIODE2
d3 22 2 diode3
.model diode3 d  is=100f N=2 
.MODEL DIODE1 D
+ IS = 20f
+ N = 1.1
+ BV = 18
+ IBV = 5mA
+ nbv=6.7
+ RS = 4.5
+ CJO = 3.17E-011
+ VJ = 0.6421
+ M = 0.3327
+ FC = 0.5
.MODEL DIODE2 D
+ IS = 20f
+ N = 1.101
+ BV = 27
+ IBV = 2mA
+ nbv=9.3
+ RS =8.5
+ CJO = 2.233E-011
+ VJ = 0.7107
+ M = 0.3546
+ FC = 0.5
.ENDS