*NXP Semiconductors
*
*Low capacitance bidirectional ESD protection diode
*
*VCL = 33V  @ Ipp  = 15A
*VBR = 8,2V @ IR   = 5mA
*Package: SOD323
*
*Package Pin 1: cathode   D1
*Package Pin 2: cathode   D2

*Simulator: SPICE3
*
******
*#
.SUBCKT PESD5V0L1BA  1 2
R1 1 11 7E+011
R2 2 11 7E+011
D1 11 1
+ DIODE1
D2 11 2
+ DIODE2
*The resistors R1 and  R2  
*do not  reflect physical devices but improve 
*only modeling in the reverse 
*mode of operation.
*
.MODEL DIODE1 D
+ IS = 3E-012
+ N = 0.6
+ BV = 7.25
+ IBV = 1.534E-005
+ RS = 1
+ CJO = 4E-008
+ VJ = 0.6
+ M = 0.1
+ FC = 0.5
+ TT = 0
+ EG = 0.69
+ XTI = 2
.MODEL DIODE2 D
+ IS = 1E-014
+ N = 0.6
+ BV = 7.4
+ IBV = 1.697E-005
+ RS = 0.3
+ CJO = 7.143E-011
+ VJ = 1.46
+ M = 0.2
+ FC = 0
+ TT = 0
+ EG = 0.69
+ XTI = 2
.ENDS

*
*PESD3V3L1BA
*
*NXP Semiconductors
*
*Low capacitance bidirectional double ESD protection diode
*
*VCL = 70V  @ Ipp  = 3A
*VBR = 6,9V @ IR   = 5mA
*IRM = 2uA  @ VRWM = 3,3V

*Package: SOD323
*
*Package Pin 1: cathode D1
*Package Pin 2: cathode D2

*Simulator: SPICE3
*
******
*#
.SUBCKT PESD3V3L1BA 1 2
R1 1 11 4E+010
R2 2 11 4E+011
D1 11 1
+ DIODE1
D2 11 2
+ DIODE2
*The resistors R1 and  R2  
*do not  reflect physical devices but improve 
*only modeling in the reverse 
*mode of operation.
*
.MODEL DIODE1 D
+ IS = 3E-012
+ N = 0.4
+ BV = 6.3
+ IBV = 0.0004
+ RS = 0.6
+ CJO = 4E-008
+ VJ = 0.6
+ M = 0.1
+ FC = 0.5
+ TT = 0
+ EG = 0.69
+ XTI = 2
.MODEL DIODE2 D
+ IS = 1E-014
+ N = 0.5
+ BV = 6.3
+ IBV = 4E-006
+ RS = 0.5
+ CJO = 1.007E-010
+ VJ = 0.4
+ M = 0.09
+ FC = 0
+ TT = 0
+ EG = 0.69
+ XTI = 2
.ENDS

*PESD24VL1BA
*
*NXP Semiconductors
*
*Low capacitance bidirectional ESD protection diodes
*
*VCL = 70V   @ Ipp  = 3mA
*VBR = 30,3V @ IR   = 5mA
*IRM = 50nA  @ VRWM = 24V

*Package: SOD323
*
*Package Pin 1: cathode D1 
*Package Pin 2: cathode D2 

*Simulator: SPICE3
*
*******************************************
*#
.SUBCKT PESD24VL1BA  1 2
R1 1 11 1E+012
R2 2 11 5E+012
D1 11 1
+ DIODE1
D2 11 2
+ DIODE2

*The resistors R1 and  R2  
*do not  reflect physical devices but improve 
*only modeling in the reverse 
*mode of operation.
*

.MODEL DIODE1 D
+ IS = 3E-012
+ N = 0.1
+ BV = 27
+ IBV = 1E-008
+ RS = 40
+ CJO = 1E-008
+ VJ = 0.6
+ M = 0.1
+ FC = 0.5
+ TT = 0
+ EG = 0.69
+ XTI = 2
.MODEL DIODE2 D
+ IS = 1E-014
+ N = 1.9
+ BV = 26.9
+ IBV = 1E-008
+ RS = 10
+ CJO = 1.126E-0
+ VJ = 1.6
+ M = 0.28
+ FC = 0
+ TT = 0
+ EG = 0.69
+ XTI = 2
.ENDS

*PESD1LIN
*
*NXP Semiconductors
*
*LIN bus ESD protection diode
* 
*VCL = 70V   @ Ipp  = 3mA
*VBR = 30,3V @ IR   = 5mA
*IRM = 50nA  @ VRWM = 24V 

*Package: SOD323
*
*Package Pin 1: cathode D1 (15V)
*Package Pin 2: cathode D2 (24V)

*Simulator: SPICE3
*
*******************************************
*#
.SUBCKT PESD1LIN 1 2
R1 1 11 5E+011
R2 2 11 1E+013
D1 11 1
+ DIODE1
D2 11 2
+ DIODE2
.MODEL DIODE1 D
+ IS = 3E-012
+ N = 0.2
+ BV = 18
+ IBV = 3E-009
+ RS = 30
+ CJO = 4E-008
+ VJ = 0.6
+ M = 0.1
+ FC = 0.5
+ TT = 0
+ EG = 0.69
+ XTI = 2
.MODEL DIODE2 D
+ IS = 1E-014
+ N = 1.8
+ BV = 26.78
+ IBV = 5.3E-011
+ RS = 30
+ CJO = 2.558E-011
+ VJ = 0.7
+ M = 0.242
+ FC = 0
+ TT = 0
+ EG = 0.69
+ XTI = 2
.ENDS

