* NEC ND6271-5E PIN DIODE
* PINOUT         A C
.SUBCKT ND62715E 1 2
L1 1 3 0.40E-9
R1 3 4 1.41
R2 12 4 2484
R3 5 6 10
R4 0 8 1E6
R5 0 7 1E6
R6 0 10 1E6
R7 18 0 1E6
R8 0 19 1E6
R9 17 0 1E6
C1 2 4 0.20E-12
C2 2 3 0.05E-12
E1 8 0 12 2 1000
E2 5 0 8 7 1000
E3 11 0 7 0 1E-3
E4 17 0 16 0 1.2
E5 10 0 POLY(2) 19 0 18 0 0 0 0 0 1
G1 4 12 POLY(2) 4 12 10 0 1E-9 0 0 0 5E-3
H1 19 0 V1 10E3
I1 0 16 1E-3
V1 11 9 0
V2 17 18 -0.2853
D1 12 2 DB11
D2 9 0 DB12
D3 6 7 DB13
D4 0 6 DB13
D5 16 0 DB14
.MODEL DB11 D(N=2.50 IS=2.84E-8 TT=400E-9)
.MODEL DB12 D(N=2.77 IS=1.59E-7)
.MODEL DB13 D(IS=2.84E-8)
.MODEL DB14 D(IS=1E-13)
.ENDS
**********
*SRC=UM4000;UM4000;Diodes;PIN;Unitrode
*SYM=DIODE
* UNITRODE UM4000 PIN DIODE
*Connections        A C
.SUBCKT UM4000 1 2
L1 1 3 0.85E-9
R1 3 4 0.064
R2 12 4 122E3
R3 5 6 10
R4 0 8 1E6
R5 0 7 1E6
R6 0 10 1E6
R7 18 0 1E6
R8 0 19 1E6
R9 17 0 1E6
C1 2 4 1.90E-12
C2 2 3 0.60E-12
E1 8 0 12 2 1000
E2 5 0 8 7 1000
E3 11 0 7 0 1E-3
E4 17 0 16 0 1.2
E5 10 0 POLY(2) 19 0 18 0 0 0 0 0 1
G1 4 12 POLY(2) 4 12 10 0 1E-9 0 0 0 2.476E-3
H1 19 0 V1 10E3
I1 0 16 1E-3
V1 11 9 0
V2 17 18 -0.2853
D1 12 2 DA71
D2 9 0 DA72
D3 6 7 DA73
D4 0 6 DA73
D5 16 0 DA74
.MODEL DA71 D(N=1.563 IS=9.97E-9 TT=5E-6)
.MODEL DA72 D(N=1.906 IS=2.75E-7)
.MODEL DA73 D(IS=9.97E-9)
.MODEL DA74 D(IS=1E-13)
.ENDS
**********
*SRC=HP3810;HP3810;Diodes;PIN;H-P
*SYM=DIODE
* HP3810 PIN DIODE
* PINOUT       A C
.SUBCKT HP3810 1 2
L1 1 3 1.35E-9
R1 3 4 1.57
R2 12 4 111E6
R3 5 6 10
R4 0 8 1E6
R5 0 7 1E6
R6 0 10 1E6
R7 18 0 1E6
R8 0 19 1E6
R9 17 0 1E6
C1 2 4 0.45E-12
C2 1 2 0.15E-12
E1 8 0 12 2 1000
E2 5 0 8 7 1000
E3 11 0 7 0 1E-3
E4 17 0 16 0 1.2
E5 10 0 POLY(2) 19 0 18 0 0 0 0 0 1
G1 4 12 POLY(2) 4 12 10 0 1E-9 0 0 0 1.264E-3
H1 19 0 V1 10E3
I1 0 16 1E-3
V1 11 9 0
V2 17 18 -0.2853
D1 12 2 DD1
D2 9 0 DD2
D3 6 7 DD3
D4 0 6 DD3
D5 16 0 DD4
.MODEL DD1 D(N=1.795 IS=2.348E-9 TT=1500E-9)
.MODEL DD2 D(N=1.831 IS=3.468E-9)
.MODEL DD3 D(IS=2.5E-9)
.MODEL DD4 D(IS=1E-13)
.ENDS
**********
*SRC=1N5719;DN5719;Diodes;PIN;H-P
*SYM=DIODE
* HP 1N5719 PIN DIODE
*Connections        A C
.SUBCKT 1N5719 1 2
L1 1 3 1.35E-9
R1 3 4 0.598
R2 12 4 24.7E3
R3 5 6 10
R4 0 8 1E6
R5 0 7 1E6
R6 0 10 1E6
R7 18 0 1E6
R8 0 19 1E6
R9 17 0 1E6
C1 2 4 0.25E-12
C2 2 3 0.05E-12
E1 8 0 12 2 1000
E2 5 0 8 7 1000
E3 11 0 7 0 1E-3
E4 17 0 16 0 1.2
E5 10 0 POLY(2) 19 0 18 0 0 0 0 0 1
G1 4 12 POLY(2) 4 12 10 0 1E-9 0 0 0 2.55E-3
H1 19 0 V1 10E3
I1 0 16 1E-3
V1 11 9 0
V2 17 18 -0.2853
D1 12 2 DA81
D2 9 0 DA82
D3 6 7 DA83
D4 0 6 DA83
D5 16 0 DA84
.MODEL DA81 D(N=1.347 IS=2.89E-12 TT=100E-9)
.MODEL DA82 D(N=1.473 IS=2.82E-11)
.MODEL DA83 D(IS=2.89E-12)
.MODEL DA84 D(IS=1E-13)
.ENDS
**********
*SRC=BAR17;BAR17;Diodes;PIN;Siemens
*SYM=DIODE
* SIEMENS BAR17 PIN DIODE
* PINOUT      A C
.SUBCKT BAR17 1 2
L1 1 3 2.25E-9
R1 3 4 0.632
R2 12 4 29E6
R3 5 6 10
R4 0 8 1E6
R5 0 7 1E6
R6 0 10 1E6
R7 18 0 1E6
R8 0 19 1E6
R9 17 0 1E6
C1 2 4 0.30E-12
C2 2 3 0.07E-12
E1 8 0 12 2 1000
E2 5 0 8 7 1000
E3 11 0 7 0 1E-3
E4 17 0 16 0 1.2
E5 10 0 POLY(2) 19 0 18 0 0 0 0 0 1
G1 4 12 POLY(2) 4 12 10 0 1E-9 0 0 0 1.63E-3
H1 19 0 V1 10E3
I1 0 16 1E-3
V1 11 9 0
V2 17 18 -0.2853
D1 12 2 DB21
D2 9 0 DB22
D3 6 7 DB23
D4 0 6 DB23
D5 16 0 DB24
.MODEL DB21 D(N=1.64 IS=2.05E-10 TT=4E-6)
.MODEL DB22 D(N=1.91 IS=4.88E-9)
.MODEL DB23 D(IS=2.05E-10)
.MODEL DB24 D(IS=1E-13)
.ENDS
**********
*SRC=1N5767;DN5767;Diodes;PIN;Alpha
*SYM=DIODE
* ALPHA 1N5767 PIN DIODE
*Connections        A C
.SUBCKT 1N5767 1 2
L1 1 3 2.15E-9
R1 3 4 2.61
R2 12 4 5700
R3 5 6 10
R4 0 8 1E6
R5 0 7 1E6
R6 0 10 1E6
R7 18 0 1E6
R8 0 19 1E6
R9 17 0 1E6
C1 2 4 0.35E-12
C2 2 3 0.06E-12
E1 8 0 12 2 1000
E2 5 0 8 7 1000
E3 11 0 7 0 1E-3
E4 17 0 16 0 1.2
E5 10 0 POLY(2) 19 0 18 0 0 0 0 0 1
G1 4 12 POLY(2) 4 12 10 0 1E-9 0 0 0 5.67E-3
H1 19 0 V1 10E3
I1 0 16 1E-3
V1 11 9 0
V2 17 18 -0.2853
D1 12 2 DA91
D2 9 0 DA92
D3 6 7 DA93
D4 0 6 DA93
D5 16 0 DA94
.MODEL DA91 D(N=1.348 IS=2.52E-13 TT=1E-6)
.MODEL DA92 D(N=1.197 IS=6.52E-15)
.MODEL DA93 D(IS=2.52E-13)
.MODEL DA94 D(IS=1E-13)
.ENDS
