.SUBCKT pot 1 2 3 T=0.5 R=10k
.param tap={limit(T,1m,.999)}
R0 1 3 {R*(1-tap)}
R1 3 2 {R*tap}
.ENDS
