.SUBCKT powcalc GND
Vpowcalc N001 0 5
Xpowcalc N001 N002 N003 0 N004 N005 N006 LT1074
.lib LT1074.sub
.ENDS
