*****************************************************************
* NXP PSMN010-25YLC 
*
* Polarity N-Channel
* Ratings 25V/1.060000E-002OHMS/39A
*
* Date Created Tue Sep 06 07:49:53 2011
*
*****************************************************************
* Model Generated by Transim Technology
*           Copyright(c) 2004
*         All Rights Reserved
*    UNPUBLISHED LICENSED SOFTWARE
*           www.transim.com
*
* Contains Proprietary Information Which
* is The Property of Transim or it's licensees.
*
* Commercial Use or Resale Restricted by
* Transim License Agreement.
*
*****************************************************************

.SUBCKT PSMN010-25YLC  DRAIN GATE SOURCE

LD DRAIN 5 5e-12
RLD2 DRAIN 5 0.0125663706143592
RLD1 5 4 1e-06
LG GATE 1 7.81292696075128e-10
RLG GATE 1 1.96360271543439
LS SOURCE 8 9e-10
RLS2 SOURCE 8 2.26194671058465
RLS1 8 7 0.00035

RDS 7 4 2500000000 TC=-0.05

RS 6 7 0.0001

RD 3 4 0.00722729692256551 TC=0.00474591967293232,4.00061189664698E-06
RBD 9 4 0.00348597107084177 TC=0.00474591967293232,4.00061189664698E-06
DBD 7 9 DBD

M1 3 2 6 6 MINT

RGS 2 6 160000000
CGS 2 6 5.8e-10
RG 1 2 1.96663376181753

* CGD
C11    11   12   1E-12
V11    11   0   0Vdc
G11    3 2 VALUE { V(13, 0)*I(V11) }
E11    12   0  3 2  1
E12    13   0  TABLE {V(12)}
+ -16	327
+ -10	326
+ -5	325
+ -4	323
+ -3	318
+ -2	298
+ -1	218
+ -0.5	264
+ -0.2	226
+ -0.1	215
+ 0	201
+ 0.1	194
+ 0.2	182
+ 0.5	146
+ 1	113
+ 2	86
+ 3	74
+ 4	66
+ 5	61
+ 6	58
+ 8	53
+ 10	50
+ 12	48
+ 15	45
+ 20	42
+ 25	39


.MODEL MINT NMOS(Vto=1.99500 Kp=8.990e+001 Nfs=480000000000 Eta=1000
+ Level=3 L=1e-4 W=1e-4 Gamma=0 Phi=0.6 Is=1e-24
+ Js=0 Pb=0.8 Cj=0 Cjsw=0 Cgso=0 Cgdo=0 Cgbo=0
+ Tox=1e-07 Xj=0
+ U0=600 Vmax=1000)

.MODEL DBD D(Bv=29 Ibv=2.500000E-004 Rs=1E-6 Is=3.950481148304459e-13
+ N=1 M=0.65 VJ=0.9 Fc=0.5 Cjo=6.65e-10 Tt=1.5132e-08)

.ENDS

*****************************************************************
* NXP PSMN011-30YLC
*
* Polarity N-Channel
* Ratings 30V/1.160000E-002OHMS/37A
*
* Date Created Sun Sep 04 13:19:32 2011
*
*****************************************************************
* Model Generated by Transim Technology
*           Copyright(c) 2004
*         All Rights Reserved
*    UNPUBLISHED LICENSED SOFTWARE
*           www.transim.com
*
* Contains Proprietary Information Which
* is The Property of Transim or it's licensees.
*
* Commercial Use or Resale Restricted by
* Transim License Agreement.
*
*****************************************************************

.SUBCKT PSMN011-30YLC DRAIN GATE SOURCE

LD DRAIN 5 5e-12
RLD2 DRAIN 5 0.0125663706143592
RLD1 5 4 1e-06
LG GATE 1 7.81292696075128e-10
RLG GATE 1 1.96360271543439
LS SOURCE 8 9e-10
RLS2 SOURCE 8 2.26194671058465
RLS1 8 7 0.00035

RDS 7 4 3000000000 TC=-0.05

RS 6 7 0.0001

RD 3 4 0.00833818121897234 TC=0.00585658240844502,-1.33386455550974E-06
RBD 9 4 0.00396392590543894 TC=0.00585658240844502,-1.33386455550974E-06
DBD 7 9 DBD

M1 3 2 6 6 MINT

RGS 2 6 160000000
CGS 2 6 6.25e-10
RG 1 2 1.96663376181753

* CGD
C11    11   12   1E-12
V11    11   0   0Vdc
G11    3 2 VALUE { V(13, 0)*I(V11) }
E11    12   0  3 2  1
E12    13   0  TABLE {V(12)}
+ -16	549.6
+ -10	548.6
+ -5	545.66
+ -4	543.3
+ -3	534.36
+ -2	379.68
+ -1	326.4
+ -0.5	264.49
+ -0.2	226.56
+ -0.1	214.39
+ 0	202.925
+ 0.1	187.07
+ 0.2	172.78
+ 0.5	140.67
+ 1	111.45
+ 2	85.89
+ 3	73.9
+ 4	66.5
+ 5	61.45
+ 6	57.66
+ 8	51.99
+ 10	48.2
+ 12	45.87
+ 15	43.34
+ 20	40.26
+ 25	37.18
+ 30	34.1


.MODEL MINT NMOS(Vto=1.98 Kp=1.0e+002 Nfs=450000000000 Eta=1000
+ Level=3 L=1e-4 W=1e-4 Gamma=0 Phi=0.6 Is=1e-24
+ Js=0 Pb=0.8 Cj=0 Cjsw=0 Cgso=0 Cgdo=0 Cgbo=0
+ Tox=1e-07 Xj=0
+ U0=600 Vmax=1000)

.MODEL DBD D(Bv=34 Ibv=2.500000E-004 Rs=1E-6 Is=3.81730188710141e-13
+ N=1 M=0.54 VJ=0.5 Fc=0.5 Cjo=6.5491e-10 Tt=1.6956e-08)

.ENDS

*****************************************************************
* NXP PSMN011-60ML
*
* Polarity N-Channel
* Ratings 60V/1.125000E-002OHMS/60.6060606060606A
*
* Date Created Tue May 28 00:37:12 2013
*
*****************************************************************
* Model Generated by Transim Technology
*           Copyright(c) 2004
*         All Rights Reserved
*    UNPUBLISHED LICENSED SOFTWARE
*           www.transim.com
*
* Contains Proprietary Information Which
* is The Property of Transim or it's licensees.
*
* Commercial Use or Resale Restricted by
* Transim License Agreement.
*
*****************************************************************

.SUBCKT PSMN011-60ML DRAIN GATE SOURCE

LD DRAIN 5 2e-11
RLD2 DRAIN 5 0.0502654824574367
RLD1 5 4 5e-06
LG GATE 1 7.81292696075128e-10
RLG GATE 1 1.96360271543439
LS SOURCE 8 6.3e-10
RLS2 SOURCE 8 1.58336269740926
RLS1 8 7 0.00024

RDS 7 4 60000000 TC=-0.005

RS 6 7 0.0001

RD 3 4 0.00810478693447258 TC=0.00481444387493616,1.50140034058173E-05
RBD 9 4 0.00193144873986138 TC=0.00481444387493616,1.50140034058173E-05
DBD 7 9 DBD

M1 3 2 6 6 MINT

RGS 2 6 160000000
CGS 2 6 1.6949342747476e-09
RG 1 2 1.85636

* CGD
C11    11   12   1E-12
V11    11   0   0Vdc
G11    3 2 VALUE { V(13, 0)*I(V11) }
E11    12   0  3 2  1
E12    13   0  TABLE {V(12)}
+ -2	1586.72
+ -1	1342.73
+ -0.5	948.121
+ -0.2	661.251
+ -0.1	653.58
+ 0	487.50244
+ 0.1	356.16448
+ 0.2	355.67692
+ 0.5	295.6758
+ 1	248.65708
+ 2	190.68932
+ 3	166.2224
+ 4	154.87336
+ 5	148.22272
+ 6	143.73792
+ 8	137.58864
+ 10	133.03784
+ 12	129.1236
+ 15	123.90812
+ 16	122.23368
+ 20	116.61152
+ 25	110.86152
+ 30	106.34908



.MODEL MINT NMOS(Vto=2.090009496545 Kp=1.503308e+002 Nfs=370000000000 Eta=1000
+ Level=3 L=1e-4 W=1e-4 Gamma=0 Phi=0.6 Is=1e-24
+ Js=0 Pb=0.8 Cj=0 Cjsw=0 Cgso=0 Cgdo=0 Cgbo=0
+ Tox=1e-07 Xj=0
+ U0=600 Vmax=1000)

.MODEL DBD D(Bv=66 Ibv=2.500000E-004 Rs=1E-6 Is=9.1051797126249e-13
+ N=1 M=0.6 VJ=0.5 Fc=0.5 Cjo=8.5978072e-10 Tt=1.224e-08)

.ENDS

*****************************************************************
* NXP PSMN011-60MS
*
* Polarity N-Channel
* Ratings 60V/1.125000E-002OHMS/61.0235584968349A
*
* Date Created Tue May 28 00:28:55 2013
*
*****************************************************************
* Model Generated by Transim Technology
*           Copyright(c) 2004
*         All Rights Reserved
*    UNPUBLISHED LICENSED SOFTWARE
*           www.transim.com
*
* Contains Proprietary Information Which
* is The Property of Transim or it's licensees.
*
* Commercial Use or Resale Restricted by
* Transim License Agreement.
*
*****************************************************************

.SUBCKT PSMN011-60MS DRAIN GATE SOURCE

LD DRAIN 5 2e-11
RLD2 DRAIN 5 0.0502654824574367
RLD1 5 4 5e-06
LG GATE 1 7.81292696075128e-10
RLG GATE 1 1.96360271543439
LS SOURCE 8 6.3e-10
RLS2 SOURCE 8 1.58336269740926
RLS1 8 7 0.00024

RDS 7 4 60000000 TC=-0.005

RS 6 7 0.0001

RD 3 4 0.00706323352497789 TC=0.0047859138869008,1.66546611745349E-05
RBD 9 4 0.00188355584074015 TC=0.0047859138869008,1.66546611745349E-05
DBD 7 9 DBD

M1 3 2 6 6 MINT

RGS 2 6 200000000
CGS 2 6 1.19352174495873e-09
RG 1 2 1.81148

* CGD
C11    11   12   1E-12
V11    11   0   0Vdc
G11    3 2 VALUE { V(13, 0)*I(V11) }
E11    12   0  3 2  1
E12    13   0  TABLE {V(12)}
+ -1	661.649
+ -0.5	497.28
+ -0.2	412.029
+ -0.1	410.144
+ 0	387.7401
+ 0.1	337.17124
+ 0.2	336.85676
+ 0.5	294.3504
+ 1	253.12832
+ 2	200.46372
+ 3	175.407
+ 4	162.6082
+ 5	154.8666
+ 6	149.57728
+ 8	142.30436
+ 10	136.96532
+ 12	132.47284
+ 15	126.67292
+ 16	124.86264
+ 20	118.88712
+ 25	112.9376
+ 30	108.3652



.MODEL MINT NMOS(Vto=3.7254656246929 Kp=9.00268e+001 Nfs=800000000000 Eta=1000
+ Level=3 L=1e-4 W=1e-4 Gamma=0 Phi=0.6 Is=1e-24
+ Js=0 Pb=0.8 Cj=0 Cjsw=0 Cgso=0 Cgdo=0 Cgbo=0
+ Tox=1e-07 Xj=0
+ U0=600 Vmax=1000)

.MODEL DBD D(Bv=66 Ibv=2.500000E-004 Rs=1E-6 Is=6.61664015352836e-13
+ N=1 M=0.58 VJ=0.5 Fc=0.5 Cjo=8.06369e-10 Tt=1.4224e-08)

.ENDS

*****************************************************************
* NXP PSMN011_80YS
*
* Polarity N-Channel
* Ratings 80V/1.10E-02OHMS/25A
*
* Date Created Sun Oct 17 01:43:23 2010
*
*****************************************************************
* Model Generated by Transim Technology
*           Copyright(c) 2004
*         All Rights Reserved
*    UNPUBLISHED LICENSED SOFTWARE
*           www.transim.com
*
* Contains Proprietary Information Which
* is The Property of Transim or it's licensees.
*
* Commercial Use or Resale Restricted by
* Transim License Agreement.
* 
*****************************************************************

.SUBCKT PSMN011_80YS DRAIN GATE SOURCE

LD DRAIN 5 5e-12
RLD2 DRAIN 5 0.01256636
RLD1 5 4 1e-06
LG GATE 1 4.30084418749933e-10
RLG GATE 1 1.08091912728048
LS SOURCE 8 9e-10
RLS2 SOURCE 8 2.2619448
RLS1 8 7 0.00035

RDS 7 4 80000000 TC=-0.05

RS 6 7 0.0001

RD 3 4 0.00984748400489996 TC=0.00884020231997967,7.12740366225014e-06
RBD 9 4 0.000704033272066971 TC=0.00884020231997967,7.12740366225014e-06
DBD 7 9 DBD

M1 3 2 6 6 MINT

RGS 2 6 200000000
CGS 2 6 2.61425925925926e-09
RG 1 2 0.699302875042655

* CGD
C11    11   12   1E-12
V11    11   0   0Vdc
G11    3 2 VALUE { V(13, 0)*I(V11) }
E11    12   0  3 2  1
E12    13   0  TABLE {V(12)}
+ -30	2035
+ -25	2034
+ -20	2031
+ -10	2025
+ -8	2022
+ -6	2010
+ -4	2087
+ -2	1579
+ 0	0
+ 0.1	482
+ 0.2	453
+ 0.5	383
+ 1	293
+ 2	198
+ 5	175
+ 10	182
+ 20	164
+ 25	158
+ 30	153
+ 40	145



.MODEL MINT NMOS(Vto=4.29566858542846 Kp=2.3741e+02 Nfs=0 Eta=0
+ Level=3 L=1e-4 W=1e-4 Gamma=0 Phi=0.6 Lambda=0 Is=1e-24
+ Js=0 Pb=0.8 Pbsw=0.8 Vmax=1000)

.MODEL DBD D(Bv=80.00 Ibv=2.50E-04 Rs=1E-6 Is=1.46665445505171e-12
+ N=1 M=0.65 VJ=0.5 Fc=0.5 Cjo=1.90212e-09 Tt=5.41e-08)

.ENDS


*****************************************************************
* NXP PSMN012-100YS
*
* Polarity N-Channel
* Ratings 100V/1.200000E-002OHMS/60A
*
* Date Created Wed Nov 02 03:29:35 2011
*
*****************************************************************
* Model Generated by Transim Technology
*           Copyright(c) 2004
*         All Rights Reserved
*    UNPUBLISHED LICENSED SOFTWARE
*           www.transim.com
*
* Contains Proprietary Information Which
* is The Property of Transim or it's licensees.
*
* Commercial Use or Resale Restricted by
* Transim License Agreement.
*
*****************************************************************

.SUBCKT PSMN012-100YS DRAIN GATE SOURCE

LD DRAIN 5 5e-12
RLD2 DRAIN 5 0.0125663706143592
RLD1 5 4 1e-06
LG GATE 1 7.81292696075128e-10
RLG GATE 1 1.96360271543439
LS SOURCE 8 9e-10
RLS2 SOURCE 8 2.26194671058465
RLS1 8 7 0.00035

RDS 7 4 1666666666.66667 TC=-0.005

RS 6 7 0.0001

RD 3 4 0.00893707522470541 TC=0.00589952267587148,3.61082470164779E-05
RBD 9 4 0.000476937362398329 TC=0.00589952267587148,3.61082470164779E-05
DBD 7 9 DBD

M1 3 2 6 6 MINT

RGS 2 6 200000000
CGS 2 6 3.22736284470247e-09
RG 1 2 0.676633761817533

* CGD
C11    11   12   1E-12
V11    11   0   0Vdc
G11    3 2 VALUE { V(13, 0)*I(V11) }
E11    12   0  3 2  1
E12    13   0  TABLE {V(12)}
+ -2	2030
+ -1	1824
+ -0.5	1493
+ -0.2	1255
+ -0.1	1177
+ 0	1110
+ 0.1	1015
+ 0.2	945
+ 0.5	820
+ 1	700
+ 2	517
+ 5	344
+ 10	277
+ 20	216.4
+ 25	197
+ 50	148
+ 75	99
+ 100	50


.MODEL MINT NMOS(Vto=3.650 Kp=1.70e+002 Nfs=660000000000 Eta=1000
+ Level=3 L=1e-4 W=1e-4 Gamma=0 Phi=0.6 Is=1e-24
+ Js=0 Pb=0.8 Cj=0 Cjsw=0 Cgso=0 Cgdo=0 Cgbo=0
+ Tox=1e-07 Xj=0
+ U0=600 Vmax=900)

.MODEL DBD D(Bv=110 Ibv=2.500000E-004 Rs=1E-6 Is=2.10219257927429e-12
+ N=1 M=0.63 VJ=0.75 Fc=0.5 Cjo=1.278e-09 Tt=5.6e-08)

.ENDS



*****************************************************************
* NXP PSMN012-25YLC
*
* Polarity N-Channel
* Ratings 25V/1.260000E-002OHMS/33A
*
* Date Created Tue Sep 06 08:16:20 2011
*
*****************************************************************
* Model Generated by Transim Technology
*           Copyright(c) 2004
*         All Rights Reserved
*    UNPUBLISHED LICENSED SOFTWARE
*           www.transim.com
*
* Contains Proprietary Information Which
* is The Property of Transim or it's licensees.
*
* Commercial Use or Resale Restricted by
* Transim License Agreement.
*
*****************************************************************

.SUBCKT PSMN012-25YLC DRAIN GATE SOURCE

LD DRAIN 5 5e-12
RLD2 DRAIN 5 0.0125663706143592
RLD1 5 4 1e-06
LG GATE 1 7.81292696075128e-10
RLG GATE 1 1.96360271543439
LS SOURCE 8 9e-10
RLS2 SOURCE 8 2.26194671058465
RLS1 8 7 0.00035

RDS 7 4 2500000000 TC=-0.05

RS 6 7 0.0001

RD 3 4 0.00877635497232804 TC=0.00456748214439581,4.43480290354005E-06
RBD 9 4 0.00385734847305037 TC=0.00456748214439581,4.43480290354005E-06
DBD 7 9 DBD

M1 3 2 6 6 MINT

RGS 2 6 160000000
CGS 2 6 4.7e-10
RG 1 2 2.09583376181753

* CGD
C11    11   12   1E-12
V11    11   0   0Vdc
G11    3 2 VALUE { V(13, 0)*I(V11) }
E11    12   0  3 2  1
E12    13   0  TABLE {V(12)}
+ -16	466
+ -10	466
+ -5	463
+ -4	460
+ -3	451
+ -2	369
+ -1	293
+ -0.5	246
+ -0.2	216
+ -0.1	205
+ 0	195
+ 0.1	181
+ 0.2	167
+ 0.5	134
+ 1	103
+ 2	77
+ 3	66
+ 4	59
+ 5	55
+ 6	52
+ 8	48
+ 10	45
+ 12	43
+ 15	41
+ 20	38
+ 25	38


.MODEL MINT NMOS(Vto=2.140 Kp=8.2e+001 Nfs=560000000000 Eta=1000
+ Level=3 L=1e-4 W=1e-4 Gamma=0 Phi=0.6 Is=1e-24
+ Js=0 Pb=0.8 Cj=0 Cjsw=0 Cgso=0 Cgdo=0 Cgbo=0
+ Tox=1e-07 Xj=0
+ U0=600 Vmax=1000)

.MODEL DBD D(Bv=29 Ibv=2.500000E-004 Rs=1E-6 Is=2.292e-13
+ N=1 M=0.58 VJ=0.69 Fc=0.5 Cjo=5.54e-10 Tt=1.4692e-08)

.ENDS

*****************************************************************
* NXP PSMN012-60YS
*
* Polarity N-Channel
* Ratings 60V/1.20E-02OHMS/59A
*
* Date Created Tue Jun  8 08:05:37 2010
*
*****************************************************************
* Model Generated by Transim Technology
*           Copyright(c) 2004
*         All Rights Reserved
*    UNPUBLISHED LICENSED SOFTWARE
*           www.transim.com
*
* Contains Proprietary Information Which
* is The Property of Transim or it's licensees.
*
* Commercial Use or Resale Restricted by
* Transim License Agreement.
*
*****************************************************************

.SUBCKT PSMN012-60YS DRAIN GATE SOURCE

LD DRAIN 5 5e-12
RLD2 DRAIN 5 0.01256636
RLD1 5 4 1e-06
LG GATE 1 5.43147180559945e-10
RLG GATE 1 1.36507660078025
LS SOURCE 8 9e-10
RLS2 SOURCE 8 2.2619448
RLS1 8 7 0.00035

RDS 7 4 2000000000 TC=-0.05

RS 6 7 0.0001

RD 3 4 0.00546319566746106 TC=0.00398567406517788,1.97539043044687e-05
RBD 9 4 0.00117507546058944 TC=0.00398567406517788,1.97539043044687e-05
DBD 7 9 DBD

M1 3 2 6 6 MINT

RGS 2 6 10000000000
CGS 2 6 1.4e-9
RG 1 2 0.657840585732129

* CGD
C11    11   12   1E-12
V11    11   0   0Vdc
G11    3 2 VALUE { V(13, 0)*I(V11) }
E11    12   0  3 2  1
E12    13   0  TABLE {V(12)}
+ -20	1627
+ -10	1619
+ -5	1604
+ -2	1035
+ -1	763
+ -0.5	577
+ -0.2	470
+ -0.1	445
+ 0	424
+ 0.1	396
+ 0.2	375
+ 0.5	335
+ 1	288
+ 2	226
+ 5	177
+ 10	161
+ 20	143
+ 30	136



.MODEL MINT NMOS(Vto=3.6 Kp=7.0e+01 Nfs=640000000000 eta=1000
+ Level=3 L=1e-4 W=1e-4 Gamma=0 Phi=0.6   Is=1e-24
+ Js=0 Pb=0.8  Cj=0 Cjsw=0 Cgso=0 Cgdo=0 Cgbo=0
+ Tox=1e-07 Xj=0     
+ U0=600    Vmax=1500)

.MODEL DBD D(Bv=67.20 Ibv=2.50E-04 Rs=1E-6 Is=9.46212738817059e-13
+ N=1 M=0.6 VJ=0.5 Fc=0.5 Cjo=1.083e-09 Tt=3.518e-08)

.ENDS*******************************************************************************
*****************************************************************
* NXP PSMN012_80PS
*
* Polarity N-Channel
* Ratings 80V/1.10E-02OHMS/25A
*
* Date Created Fri Feb 19 08:28:47 2010
*
*****************************************************************
* Model Generated by Transim Technology
*           Copyright(c) 2004
*         All Rights Reserved
*    UNPUBLISHED LICENSED SOFTWARE
*           www.transim.com
*
* Contains Proprietary Information Which
* is The Property of Transim or it's licensees.
*
* Commercial Use or Resale Restricted by
* Transim License Agreement.
*
*****************************************************************

.SUBCKT PSMN012_80PS DRAIN GATE SOURCE

LD DRAIN 5 2e-09
RLD2 DRAIN 5 5.026544
RLD1 5 4 0.00027
LG GATE 1 5.43147180559945e-10
RLG GATE 1 1.36507660078025
LS SOURCE 8 2.31887015786126e-09
RLS2 SOURCE 8 5.82795143938828
RLS1 8 7 0.000787717746675436

RDS 7 4 26666666.6666667 TC=-0.05

RS 6 7 0.0001

RD 3 4 0.0076123680006517 TC=0.00863119360491043,-1.2534540187666e-05
RBD 9 4 0.00106822706364413 TC=0.00863119360491043,-1.2534540187666e-05
DBD 7 9 DBD

M1 3 2 6 6 MINT

RGS 2 6 200000000
CGS 2 6 2.632e-09
RG 1 2 0.967840585732129

* CGD
C11    11   12   1E-12
V11    11   0   0Vdc
G11    3 2 VALUE { V(13, 0)*I(V11) }
E11    12   0  3 2  1
E12    13   0  TABLE {V(12)}
+ -10	2334
+ -8	2329
+ -6	2301
+ -4	2094
+ -2	1543
+ 0	674
+ 0.1	508
+ 0.2	474
+ 0.5	398
+ 1	313
+ 2	216
+ 5	187
+ 10	172
+ 20	152
+ 25	145
+ 40	131



.MODEL MINT NMOS(Vto=3.86773580514964 Kp=7.0927e+02 Nfs=760000000000 Eta=0
+ Level=3 L=1e-4 W=1e-4 Gamma=0 Phi=0.6 Lambda=0 Is=1e-24
+ Js=0 Pb=0.8 Pbsw=0.8 Cj=0 Cjsw=0 Cgso=0 Cgdo=0 Cgbo=0
+ Tox=1e-07 Xj=0 Ucrit=1e4 Diomod=1 Vfb=0 Leta=0 Weta=0
+ U0=600 Temp=0 Vdd=0 Xpart=0 Vmax=55)

.MODEL DBD D(Bv=89.60 Ibv=2.50E-04 Rs=1E-6 Is=1.28355983252429e-12
+ N=1 M=0.720000000000001 VJ=0.88 Fc=0.5 Cjo=1.488e-09 Tt=2.25e-08)

.ENDS

*******************************************************************************
*****************************************************************
* NXP PSMN013-100BS
*
* Polarity N-Channel
* Ratings 100V/1.390000E-002OHMS/68A
*
* Date Created Wed Nov 02 06:30:03 2011
*
*****************************************************************
* Model Generated by Transim Technology
*           Copyright(c) 2004
*         All Rights Reserved
*    UNPUBLISHED LICENSED SOFTWARE
*           www.transim.com
*
* Contains Proprietary Information Which
* is The Property of Transim or it's licensees.
*
* Commercial Use or Resale Restricted by
* Transim License Agreement.
*
*****************************************************************

.SUBCKT PSMN013-100BS DRAIN GATE SOURCE

LD DRAIN 5 2e-09
RLD2 DRAIN 5 5.02654824574367
RLD1 5 4 0.00001
LG GATE 1 2.2886089148807e-09
RLG GATE 1 5.75190156314345
LS SOURCE 8 3.10130694062197e-09
RLS2 SOURCE 8 7.79443448094801
RLS1 8 7 0.00106315324002631

RDS 7 4 1666666666.66667 TC=-0.005

RS 6 7 0.0001

RD 3 4 0.00889588772720966 TC=0.00652073583964882,3.99039122119575E-05
RBD 9 4 0.000749666750505522 TC=0.00652073583964882,3.99039122119575E-05
DBD 7 9 DBD

M1 3 2 6 6 MINT

RGS 2 6 2000000000
CGS 2 6 3.01904e-09
RG 1 2 0.993521757196387

* CGD
C11    11   12   1E-12
V11    11   0   0Vdc
G11    3 2 VALUE { V(13, 0)*I(V11) }
E11    12   0  3 2  1
E12    13   0  TABLE {V(12)}
+ -5	2400
+ -2	2142
+ -1	1675
+ -0.5	1392
+ -0.2	1187
+ -0.1	1116
+ 0	1051
+ 0.1	967
+ 0.2	900
+ 0.5	783
+ 1	666
+ 2	490
+ 5	325
+ 10	259
+ 20	195
+ 25	177
+ 30	164
+ 50	132
+ 70	100
+ 90	68
+ 100	52



.MODEL MINT NMOS(Vto=3.425 Kp=1.6e+002 Nfs=410000000000 Eta=1000
+ Level=3 L=1e-4 W=1e-4 Gamma=0 Phi=0.6 Is=1e-24
+ Js=0 Pb=0.8 Cj=0 Cjsw=0 Cgso=0 Cgdo=0 Cgbo=0
+ Tox=1e-07 Xj=0
+ U0=600 Vmax=1000)

.MODEL DBD D(Bv=110 Ibv=2.500000E-004 Rs=1E-6 Is=1.91152352561197e-12
+ N=1 M=0.61 VJ=0.5 Fc=0.5 Cjo=1.388e-09 Tt=5.2e-08)

.ENDS

*****************************************************************
* NXP PSMN013-100ES
*
* Polarity N-Channel
* Ratings 100V/1.390000E-002OHMS/68A
*
* Date Created Wed Nov 02 06:30:03 2011
*
*****************************************************************
* Model Generated by Transim Technology
*           Copyright(c) 2004
*         All Rights Reserved
*    UNPUBLISHED LICENSED SOFTWARE
*           www.transim.com
*
* Contains Proprietary Information Which
* is The Property of Transim or it's licensees.
*
* Commercial Use or Resale Restricted by
* Transim License Agreement.
*
*****************************************************************

.SUBCKT PSMN013-100ES DRAIN GATE SOURCE

LD DRAIN 5 2e-09
RLD2 DRAIN 5 5.02654824574367
RLD1 5 4 0.00027
LG GATE 1 2.2886089148807e-09
RLG GATE 1 5.75190156314345
LS SOURCE 8 3.10130694062197e-09
RLS2 SOURCE 8 7.79443448094801
RLS1 8 7 0.00106315324002631

RDS 7 4 1666666666.66667 TC=-0.005

RS 6 7 0.0001

RD 3 4 0.00889588772720966 TC=0.00652073583964882,3.99039122119575E-05
RBD 9 4 0.000749666750505522 TC=0.00652073583964882,3.99039122119575E-05
DBD 7 9 DBD

M1 3 2 6 6 MINT

RGS 2 6 2000000000
CGS 2 6 3.01904e-09
RG 1 2 0.993521757196387

* CGD
C11    11   12   1E-12
V11    11   0   0Vdc
G11    3 2 VALUE { V(13, 0)*I(V11) }
E11    12   0  3 2  1
E12    13   0  TABLE {V(12)}
+ -5	2400
+ -2	2142
+ -1	1675
+ -0.5	1392
+ -0.2	1187
+ -0.1	1116
+ 0	1051
+ 0.1	967
+ 0.2	900
+ 0.5	783
+ 1	666
+ 2	490
+ 5	325
+ 10	259
+ 20	195
+ 25	177
+ 30	164
+ 50	132
+ 70	100
+ 90	68
+ 100	52



.MODEL MINT NMOS(Vto=3.425 Kp=1.6e+002 Nfs=410000000000 Eta=1000
+ Level=3 L=1e-4 W=1e-4 Gamma=0 Phi=0.6 Is=1e-24
+ Js=0 Pb=0.8 Cj=0 Cjsw=0 Cgso=0 Cgdo=0 Cgbo=0
+ Tox=1e-07 Xj=0
+ U0=600 Vmax=1000)

.MODEL DBD D(Bv=110 Ibv=2.500000E-004 Rs=1E-6 Is=1.91152352561197e-12
+ N=1 M=0.61 VJ=0.5 Fc=0.5 Cjo=1.388e-09 Tt=5.2e-08)

.ENDS



*****************************************************************
* NXP PSMN013-100PS
*
* Polarity N-Channel
* Ratings 100V/1.390000E-002OHMS/68A
*
* Date Created Wed Nov 02 06:30:03 2011
*
*****************************************************************
* Model Generated by Transim Technology
*           Copyright(c) 2004
*         All Rights Reserved
*    UNPUBLISHED LICENSED SOFTWARE
*           www.transim.com
*
* Contains Proprietary Information Which
* is The Property of Transim or it's licensees.
*
* Commercial Use or Resale Restricted by
* Transim License Agreement.
*
*****************************************************************

.SUBCKT PSMN013-100PS DRAIN GATE SOURCE

LD DRAIN 5 2e-09
RLD2 DRAIN 5 5.02654824574367
RLD1 5 4 0.00027
LG GATE 1 2.2886089148807e-09
RLG GATE 1 5.75190156314345
LS SOURCE 8 3.10130694062197e-09
RLS2 SOURCE 8 7.79443448094801
RLS1 8 7 0.00106315324002631

RDS 7 4 1666666666.66667 TC=-0.005

RS 6 7 0.0001

RD 3 4 0.00889588772720966 TC=0.00652073583964882,3.99039122119575E-05
RBD 9 4 0.000749666750505522 TC=0.00652073583964882,3.99039122119575E-05
DBD 7 9 DBD

M1 3 2 6 6 MINT

RGS 2 6 2000000000
CGS 2 6 3.01904e-09
RG 1 2 0.993521757196387

* CGD
C11    11   12   1E-12
V11    11   0   0Vdc
G11    3 2 VALUE { V(13, 0)*I(V11) }
E11    12   0  3 2  1
E12    13   0  TABLE {V(12)}
+ -5	2400
+ -2	2142
+ -1	1675
+ -0.5	1392
+ -0.2	1187
+ -0.1	1116
+ 0	1051
+ 0.1	967
+ 0.2	900
+ 0.5	783
+ 1	666
+ 2	490
+ 5	325
+ 10	259
+ 20	195
+ 25	177
+ 30	164
+ 50	132
+ 70	100
+ 90	68
+ 100	52



.MODEL MINT NMOS(Vto=3.425 Kp=1.6e+002 Nfs=410000000000 Eta=1000
+ Level=3 L=1e-4 W=1e-4 Gamma=0 Phi=0.6 Is=1e-24
+ Js=0 Pb=0.8 Cj=0 Cjsw=0 Cgso=0 Cgdo=0 Cgbo=0
+ Tox=1e-07 Xj=0
+ U0=600 Vmax=1000)

.MODEL DBD D(Bv=110 Ibv=2.500000E-004 Rs=1E-6 Is=1.91152352561197e-12
+ N=1 M=0.61 VJ=0.5 Fc=0.5 Cjo=1.388e-09 Tt=5.2e-08)

.ENDS



*****************************************************************
* NXP PSMN013-100XS
*
* Polarity N-Channel
* Ratings 100V/1.390000E-002OHMS/68A
*
* Date Created Wed Nov 02 06:30:03 2011
*
*****************************************************************
* Model Generated by Transim Technology
*           Copyright(c) 2004
*         All Rights Reserved
*    UNPUBLISHED LICENSED SOFTWARE
*           www.transim.com
*
* Contains Proprietary Information Which
* is The Property of Transim or it's licensees.
*
* Commercial Use or Resale Restricted by
* Transim License Agreement.
*
*****************************************************************

.SUBCKT PSMN013-100XS DRAIN GATE SOURCE

LD DRAIN 5 2e-09
RLD2 DRAIN 5 5.02654824574367
RLD1 5 4 0.00027
LG GATE 1 2.2886089148807e-09
RLG GATE 1 5.75190156314345
LS SOURCE 8 3.10130694062197e-09
RLS2 SOURCE 8 7.79443448094801
RLS1 8 7 0.00106315324002631

RDS 7 4 1666666666.66667 TC=-0.005

RS 6 7 0.0001

RD 3 4 0.00889588772720966 TC=0.00652073583964882,3.99039122119575E-05
RBD 9 4 0.000749666750505522 TC=0.00652073583964882,3.99039122119575E-05
DBD 7 9 DBD

M1 3 2 6 6 MINT

RGS 2 6 2000000000
CGS 2 6 3.01904e-09
RG 1 2 0.993521757196387

* CGD
C11    11   12   1E-12
V11    11   0   0Vdc
G11    3 2 VALUE { V(13, 0)*I(V11) }
E11    12   0  3 2  1
E12    13   0  TABLE {V(12)}
+ -5	2400
+ -2	2142
+ -1	1675
+ -0.5	1392
+ -0.2	1187
+ -0.1	1116
+ 0	1051
+ 0.1	967
+ 0.2	900
+ 0.5	783
+ 1	666
+ 2	490
+ 5	325
+ 10	259
+ 20	195
+ 25	177
+ 30	164
+ 50	132
+ 70	100
+ 90	68
+ 100	52



.MODEL MINT NMOS(Vto=3.425 Kp=1.6e+002 Nfs=410000000000 Eta=1000
+ Level=3 L=1e-4 W=1e-4 Gamma=0 Phi=0.6 Is=1e-24
+ Js=0 Pb=0.8 Cj=0 Cjsw=0 Cgso=0 Cgdo=0 Cgbo=0
+ Tox=1e-07 Xj=0
+ U0=600 Vmax=1000)

.MODEL DBD D(Bv=110 Ibv=2.500000E-004 Rs=1E-6 Is=1.91152352561197e-12
+ N=1 M=0.61 VJ=0.5 Fc=0.5 Cjo=1.388e-09 Tt=5.2e-08)

.ENDS



*****************************************************************
* NXP PSMN013-100YSE
*
* Polarity N-Channel
* Ratings 100V/1.300000E-002OHMS/82.4060203415522A
*
* Date Created Mon Dec 10 07:33:19 2012
*
*****************************************************************
* Model Generated by Transim Technology
*           Copyright(c) 2004
*         All Rights Reserved
*    UNPUBLISHED LICENSED SOFTWARE
*           www.transim.com
*
* Contains Proprietary Information Which
* is The Property of Transim or it's licensees.
*
* Commercial Use or Resale Restricted by
* Transim License Agreement.
*
*****************************************************************

.SUBCKT PSMN013-100YSE DRAIN GATE SOURCE

LD DRAIN 5 1e-11
RLD2 DRAIN 5 0.0251327412287184
RLD1 5 4 1e-06
LG GATE 1 5.06682869201154e-10
RLG GATE 1 1.27343294366572
LS SOURCE 8 4.4e-10
RLS2 SOURCE 8 1.10584061406361
RLS1 8 7 0.00017

RDS 7 4 50000000 TC=-0.005

RS 6 7 0.0001

RD 3 4 0.009423586419194 TC=0.00992638646653949,2.13499719154838E-05
RBD 9 4 0.00074800503340879 TC=0.00992638646653949,2.13499719154838E-05
DBD 7 9 DBD

M1 3 2 6 6 MINT

RGS 2 6 200000000
CGS 2 6 3.17567853858658e-09
RG 1 2 0.654420406758423

* CGD
C11    11   12   1E-12
V11    11   0   0Vdc
G11    3 2 VALUE { V(13, 0)*I(V11) }
E11    12   0  3 2  1
E12    13   0  TABLE {V(12)}
+ 0	3740.473
+ 0.1	1698.4972
+ 0.2	1696.5252
+ 0.5	1346.6984
+ 1	1090.8964
+ 2	812.53676
+ 3	671.03688
+ 4	589.29536
+ 5	532.0384
+ 6	489.88968
+ 8	431.01508
+ 10	390.73324
+ 12	360.5326
+ 15	326.77208
+ 16	317.14772
+ 20	287.8666
+ 25	260.86836
+ 30	240.60296
+ 50	191.99096



.MODEL MINT NMOS(Vto=4.17781152255917 Kp=0.8124433e+002 Nfs=1330000000000 Eta=1000
+ Level=3 L=1e-4 W=1e-4 Gamma=0 Phi=0.6 Is=1e-24
+ Js=0 Pb=0.8 Cj=0 Cjsw=0 Cgso=0 Cgdo=0 Cgbo=0
+ Tox=1e-07 Xj=0
+ U0=600 Vmax=1000)

.MODEL DBD D(Bv=110 Ibv=2.500000E-004 Rs=1E-6 Is=1.10236661123291e-12
+ N=1 M=0.66 VJ=0.5 Fc=0.5 Cjo=1.1759028e-09 Tt=6.1e-08)

.ENDS

*****************************************************************
* NXP PSMN013_30LL
*
* Polarity N-Channel
* Ratings 30V/1.30E-02OHMS/5A
*
* Date Created Sun Aug  1 23:51:08 2010
*
*****************************************************************
* Model Generated by Transim Technology
*           Copyright(c) 2004
*         All Rights Reserved
*    UNPUBLISHED LICENSED SOFTWARE
*           www.transim.com
*
* Contains Proprietary Information Which
* is The Property of Transim or it's licensees.
*
* Commercial Use or Resale Restricted by
* Transim License Agreement.
*
*****************************************************************

.SUBCKT PSMN013_30LL DRAIN GATE SOURCE

LD DRAIN 5 1e-10
RLD2 DRAIN 5 0.2513272
RLD1 5 4 0.0002
LG GATE 1 7.81292696075128e-10
RLG GATE 1 1.96360105685013
LS SOURCE 8 1.04952061431314e-09
RLS2 SOURCE 8 2.63773077337601
RLS1 8 7 0.00285112699841736

RDS 7 4 3000000000 TC=-0.05

RS 6 7 0.0001

RD 3 4 0.0058270611192138 TC=0.00586530777338274,2.60301239873443e-05
RBD 9 4 0.00271933821314138 TC=0.00586530777338274,2.60301239873443e-05
DBD 7 9 DBD

M1 3 2 6 6 MINT

RGS 2 6 2000000000
CGS 2 6 7e-10
RG 1 2 1.38060161358437

* CGD
C11    11   12   1E-12
V11    11   0   0Vdc
G11    3 2 VALUE { V(13, 0)*I(V11) }
E11    12   0  3 2  1
E12    13   0  TABLE {V(12)}
+ -10	830
+ -5	830
+ -2	555
+ -1	436
+ -0.5	337
+ -0.2	281
+ -0.1	264
+ 0	222.5
+ 0.1	192
+ 0.2	190
+ 0.5	171
+ 1	137
+ 2	111
+ 5	87
+ 10	73
+ 12	70
+ 15	67
+ 30  58



.MODEL MINT NMOS(Vto=2.1 Kp=7.5e+01 Nfs=500000000000 Eta=1000
+ Level=3 L=1e-4 W=1e-4 Gamma=0 Phi=0.6 Is=1e-24
+ Js=0 Pb=0.8  Cj=0 Cjsw=0 Cgso=0 Cgdo=0 Cgbo=0
+ Tox=1e-07 Xj=0  
+ U0=600 Vmax=1200)

.MODEL DBD D(Bv=35.00 Ibv=2.50E-04 Rs=1E-6 Is=5.73822573800479e-13
+ N=1 M=0.55 VJ=0.99 Fc=0.5 Cjo=4.02e-10 Tt=2.066e-08)

.ENDS



*****************************************************************
* NXP PSMN013-30MLC
*
* Polarity N-Channel
* Ratings 30V/1.355000E-002OHMS/39.2443912982634A
*
* Date Created Wed Jun 13 07:36:59 2012
*
*****************************************************************
* Model Generated by Transim Technology
*           Copyright(c) 2004