.subckt RMS0 in RMS  Params: tau=20m
B2 0 RMS I=V(xx)**0.5 Rpar=1 Cpar=10n
G1 0 a in 0 1 dir=1 vto=0
G2 0 a 0 in 1 dir=1 vto=0
R2 2 0 1
T1 a 0 2 0 Td={tau} Z0=1
G3 0 xx a 2 1
C1 xx 0 {tau} Rpar=1T 
.ends rms0
