.subckt rv4145 1 2 3 4 5 6 7
Q21 1 1 3 0 n1
Q22 3 3 1 0 n1
R1 3 1 10K
Q1 N011 1 N004 0 ph
Q2 N009 2 N004 0 ph
Q4 N011 N015 4 0 n1
Q5 N009 N015 4 0 n1
Q6 6 N011 N015 0 n1
R4 N015 4 50K
Q3 N004 N003 N002 0 ph
R10 6 N002 6K
R2 3 2 10K
Q7 6 N009 N014 0 n1
R5 N014 4 50K
Q8 4 N005 N009 0 pv
C1 N005 N009 4p
Q9 N005 N014 4 0 n1
Q12 6 N005 N006 0 n1
Q23 N005 N006 N008 0 n1
R14 N006 N008 1.3K
R6 7 N008 450
Q13 N003 N003 6 0 ph
Q14 N003 N012 N016 0 n1
R9 N016 4 39K
R7 3 N012 250K
R3 5 4 4.7K
Q11 N005 N003 6 0 ph
Q15 5 N001 7 0 ph
Q10 4 N005 N008 0 pv
R13 7 N010 30K
Q16 N013 N010 N007 0 ph
R12 N013 5 7.2K
Q17 N007 4 N007 0 Nbvbe
Q18 3 N007 3 0 Nbvbe
Q19 N001 3 N001 0 Nbvbe
Q20 6 N001 6 0 Nbvbe
C2 1 4 10p
D2 4 N012 Z5p6
.model Z5p6 D(Is=1.5p Rs=.5 Cjo=10p nbv=2 bv=5.6 Ibv=10u)
.MODEL N1 NPN IS=1e-16 BF=200  TF=500p 
+TR=10NS CJE=0.7PF CJC=0.5PF CjS=2p VAF=50 ikf=4.2m)
.MODEL Pv PNP IS=1e-17 BF=30 RB=20 TF=10NS
+ TR=200NS CJE=50f CJC=.1PF VAF=50
.MODEL Ph LPNP IS=1e-17 BF=4 RB=20 TF=20NS nk=0.78
+ TR=2NS CJE=50f CJC=100F VAF=50 ikf=1m KF=1e-20 af=1
.model Nbvbe AKO: N1 npn BVbe=6.5 ibvbe=1m
.ends rv4145

