.subckt S90 A B
C200 N001 A 2µ
C201 P001 N001 1µ
L200 Z N001 0.23m Rser=1 Rpar=15
L201 P001 B 0.5m Rser=16
C202 P002 A 30µ
L202 P002 N002 0.55m Rser=1
L204 P002 Z 2m Rser=1
C203 N002 Z 4µ Rser=5.6
L203 N002 B 0.5m Rser=8
L205 N003 A 2.1m
C204 N003 Z 110µ Rser=50m
L206 N003 B 0.5m Rser=4
.ends S90