* NEC PART NUMBER:  NE85630
* LAST MODIFIED:    7/97
* BIAS CONDITIONS:  Vce=2.5V to 10V, Ic=0.3mA to 10mA
* FREQ RANGE:       0.05GHz to 3GHz
*
*                            CCBpkg
*                    .-------||--------.
*                    |          CCB    |
*                    |      .--||---.  |       COLLECTOR
* BASE               |      |        | |
*                    |      |   /----o-o-----o--Lcx--o
*            o--Lbx--o-LB---o--|Q1   |       |
*                    |      B   \   --       --
*                    |          |   -- CCE   -- CCEpkg
*                    --CBEpkg E o----'       |
*                    --         |            |
*                    |         LE            |
*                    `----------o------------'
*                               |
*                               Lex
*                               |
*                               o EMITTER
*
*       CCB    = 0.09pF          LB  = 1.4nH
*       CCE    = 0.16pF          LE  = 0.93nH
*       CCBpkg = 0.12pF          Lbx = 0.2nH
*       CCEpkg = 0.16pF          Lcx = 0.2nH
*       CBEpkg = 0.04pF          Lex = 0.2nH
*
*                   c b e
.SUBCKT NE85630/CEL 2 1 3
Q1  5 7 8 NE85600
CCB 7 5 0.09E-12
CCE 5 8 0.16E-12
LE  8 6 0.93E-9
LB  4 7 1.4E-9
CCBPKG 4 5 0.12E-12
CCEPKG 5 6 0.16E-12
CBEPKG 4 6 0.04E-12
LBX 1 4 0.2E-9
LCX 5 2 0.2E-9
LEX 6 3 0.2E-9
.MODEL NE85600 NPN
+( IS=6e-16      BF=120           NF=0.978       VAF=10           IKF=0.08
+ ISE=32e-16     NE=1.93          BR=12          NR=0.991         VAR=3.9
+ IKR=0.17       ISC=0            NC=2           RE=0.38          RB=4.16
+ RBM=3.6        IRB=1.96e-4      RC=2           CJE=2.8e-12      VJE=1.3
+ MJE=0.5        CJC=1.1e-12      VJC=0.7        MJC=0.55         XCJC=0.3
+ CJS=0          VJS=0.75         MJS=0          FC=0.5           TF=10e-12
+ XTF=6          VTF=10           ITF=0.2        PTF=0            TR=1e-9
+ EG=1.11        XTB=0            XTI=3          KF=1.56e-18      AF=1.49 )
.ENDS NE85630/CEL

*                   c b e
.SUBCKT  2SC5227A-5 2 1 3
Q1  5 7 8 2SC5227A-5
CCB 7 5 0.09E-12
CCE 5 8 0.16E-12
LE  8 6 0.93E-9
LB  4 7 1.4E-9
CCBPKG 4 5 0.12E-12
CCEPKG 5 6 0.16E-12
CBEPKG 4 6 0.04E-12
LBX 1 4 0.2E-9
LCX 5 2 0.2E-9
LEX 6 3 0.2E-9
.MODEL 2SC5227A-5 NPN
+( IS=6e-16      BF=140           NF=0.978       VAF=10           IKF=0.08
+ ISE=32e-16     NE=1.93          BR=12          NR=0.991         VAR=3.9
+ IKR=0.17       ISC=0            NC=2           RE=0.38          RB=5
+ RBM=3.6        IRB=1.96e-4      RC=2           CJE=2.8p      VJE=1.3
+ MJE=0.5        CJC=1.1p      VJC=0.7        MJC=0.55         XCJC=0.3
+    FC=0.5           TF=10p  TR=1n
+ XTF=6          VTF=10           ITF=0.2        PTF=0
+ EG=1.11        XTB=0            XTI=3          KF=1.56e-18      AF=1.49 )
.ENDS 2SC5227A-5

.SUBCKT BFR540 1 2 3
*SOT23
Q1 6 7 8 BFR540P
L1 2 4 0.35NH
L2 6 1 0.17NH
L3 5 3 0.35NH
LB 4 7 0.40NH
LE 8 5 0.83NH
CCB 4 6 71FF
CBE 4 5 71FF
CCE 5 6 2FF
.MODEL BFR540P NPN
+ IS=1.04516E-015
+ BF=1.84359E+002
+ NF=9.81774E-001
+ VAF=4.16981E+001
+ IKF=1.00000E+001
+ ISE=2.32436E-013
+ NE=2.02825E+000
+ BR=4.39917E+001
+ NR=9.92532E-001
+ VAR=2.09773E+000
+ IKR=1.66296E-001
+ ISC=1.29849E-016
+ NC=1.06486E+000
+ RB=5.00000E+000
+ IRB=1.00000E-006
+ RBM=5.00000E+000
+ RE=3.53552E-001
+ RC=1.34000E+000
+ EG=1.11000E+000
+ XTI=3.00000E+000
+ CJE=1.97895E-012
+ VJE=6.00000E-001
+ MJE=3.32695E-001
+ TF=7.45719E-012
+ XTF=1.14072E+001
+ VTF=3.15854E+000
+ ITF=1.56917E-001
+ CJC=7.93745E-013
+ VJC=1.85522E-001
+ MJC=8.41656E-002
+ XCJC=1.50000E-001
+ TR=1.59800E-009
+ VJS=7.50000E-001
+ FC=8.14755E-001
.ENDS


** Product: FGL40N120AND
** Package: TO-264
** 1200V, NPT IGBT
** Model Format: SPICE2G6
**-----------------------------------------------------------------------------------
.SUBCKT FGL40N120AND C G E
LE 74 E 1.105n
RE 83 74 1.11m
RC 85 C 12.8m
RG G 82 14.2m
CGC 82 C 1p
CGD 92 93 9.8n
CGE E 82 2.6n
M1 81 82 83 83 MOS W=1u L=1u
Q1 83 81 85 VPNP
R1 92 0 1
R2 91 94 1
RLV 95 0 1
DBE 85 81 DE
DSD 83 81 DO
DHV 94 93 DR
DLV 94 95 DR 13
D1 91 92 DLIM
D2 94 0 DLIM
FFB 82 81 VFB 1
VFB 93 0 DC 0
ESD 96 93 POLY(1) 83 81 19 1
MLV 95 96 93 93 SW
EGD 91 0 82 81 1
DFRD E C FRD
.MODEL SW NMOS
+ LEVEL=3 VTO=0 KP=5
.MODEL VPNP PNP
+ IS=8.07e-13 NF=1.5 BF=0.0856 CJE=2.08e-9
+ TF=8.06e-08 XTB=1.204 EG=0.68
.MODEL MOS NMOS
+ LEVEL=3 VMAX=5.0e5 THETA=0.032 ETA=2e-3
+ VTO=6.60 KP=21.8
.MODEL DR D
+ IS=1.0e-14 CJO=8.0e-10 VJ=0.72 M=1.24
.MODEL DO D
+ IS=1.0e-14 BV=1200 CJO=3.5e-9 VJ=0.68
+ M=0.84
.MODEL DE D
+ IS=1.0e-14 BV=30.0 N=2
.MODEL DLIM D
+ IS=1.00e-7
.MODEL FRD D
+ IS=5.0e-12 RS=0.0208 EG=1.38 N=1.5
+ CJO=6.57e-10 VJ=0.75 M=0.45 FC=0.5
+ TT=3.97e-08 BV=1200 IBV=2.5e-4
.ENDS

*---------- DMN65D8L Spice Model ----------
.SUBCKT DMN65D8L 10 20 30
* TERMINALS: D G S
M1 1 2 3 3 NMOS L=1E-006 W=1E-006
RD 10 1 2.175
RS 30 3 0.001
RG 20 2 79.9
DESD1 2 5 DESD
DESD2 3 5 DESD
CGS 2 3 2.011E-011
EGD 12 0 2 1 1
VFB 14 0 0
FFB 2 1 VFB 1
CGD 13 14 5.9E-011
R1 13 0 1
D1 12 13 DLIM
DDG 15 14 DCGD
R2 12 15 1
D2 15 0 DLIM
DSD 3 10 DSUB
.MODEL NMOS NMOS LEVEL=3 VMAX=8E+005 ETA=0.0001583 VTO=1.595
+ TOX=6E-008 NSUB=1E+016 KP=0.58 U0=400 KAPPA=4.069
.MODEL DCGD D CJO=1.646E-011 VJ=0.1277 M=0.4
.MODEL DSUB D IS=4.551E-009 N=1.836 RS=0.1357
+ CJO=2.877E-012 VJ=1.307E-009 M=0.03355
.MODEL DLIM D IS=0.0001
.MODEL DESD D IS=1.223E-008 N=54.79 BV=5.385
.ENDS


*PART NUMBER: MTM23223
*MANUFACTURER: PANASONIC
*All Rights Reserved Copyright (c) Bee Technologies Inc. 2006
.SUBCKT MTM23223 D G S
M_M1 D G S S M23223
X_U3 G S DZ23223
D_D1 S D D23223
.ENDS
.MODEL M23223 NMOS
+ LEVEL=3 L=720.00E-9 W=.619 KP=51.630E-6 RS=1.0000E-3
+ RD=11.555E-3 VTO=.91374 RDS=20.000E6 TOX=40.000E-9
+ CGSO=2.2062E-9 CGDO=12.37E-11 CBD=5.0000E-10
+ MJ=.35331 PB=3.2415
+ KAPPA=0 THETA=0 RG=0.8 RB=1 N=5 IS=1E-15
+ GAMMA=0 ETA=0.003
.MODEL D23223 D
+ IS=116.77E-18 N=.60666 RS=1.0000E-6 IKF=51.226E-3
+ CJO=0 ISR=0 BV=20 IBV=100.00E-6 TT=50.562E-15
.subckt DZ23223 1 2
D2 1 3 DZ2
D1 2 3 DZ1
.model DZ1 D
+ IS=0.01p N=0.1 ISR=0
+ BV=16.85 IBV=0.001 RS=837
.model DZ2 D
+ IS=0.1p N=0.1 ISR=0
+ BV=16.85 IBV=0.001 RS=0
.ENDS


* PART NUMBER: L709CE
* MANUFACTURER: Litec Corporation
* VRM=180V,IF=100mA,IFSM=2A pin-diode
* All Rights Reserved Copyright (C) Bee Technologies Inc. 2005
.SUBCKT L709CE A K
V_V_I A N00040 0Vdc
V_V_Ifwd IN2 K 0Vdc
E_E1 VREV 0 VALUE { IF(V(A,K)>0, 0,V(A,K)) }
E_E3 I_REV0 0 VALUE { limit(1.3602e-08+8.2763e-09*
+ LOG10(-V(Vrev)),0.1e-9,1G) }
E_E4 I_REV 0 VALUE { V(I_rev0)*V(Vr_small)-(-I(V_V_Irev)) }
E_E6 IN K VALUE { IF(V(A,K)>0, V(A,K),0) }
V_V_Irev VREV1 VREV 0Vdc
G_ABMI1 N00040 K VALUE { I(V_V_Ifwd)-V(I_rev) }
E_E2 VR_SMALL 0 TABLE { V(Vrev) }
+ ( (-0.1,1) (0,0) )
D_D3 IN IN2 DL709CE
R_R1 0 VR_SMALL 10MEG
D_D4 VREV1 0 DL709CE
R_R2 0 I_REV0 10MEG
R_R3 0 I_REV 10MEG
.MODEL DL709CE D
+ IS=1.0000E-15 N=.79155 RS=.64725 IKF=7.6605E-6
+ CJO=691.75E-15 M=.3596 VJ=9.9900
+ BV=250 IBV=35e-9
+ ISR=0 EG=1.141 TT=0
.ENDS


*PART NUMBER:K1V14
*MANUFACTURER: SHINDENGEN MFG.CO.,LTD.
*ALL Rights Reserved Copyright (c) Bee Technologies Inc. 2004
.SUBCKT k1v14 MT2 MT1 PARAMS:
+ Vdrm=300v Idrm=0.045E-6
+ Ih=30mA dVdt=20e6
+ Igt=5ma Vgt=1.5v
+ Vtm=1.5v Itm=1A
+ Ton=1.5u
Striac MT2 MT20 cntrol 0 Vswitch
Dak1 MT20 MT22 Dak OFF
VIak MT22 MT1 0
Striacr MT2 MT23 cntrolr 0 Vswitch
Dka1 MT21 MT23 Dak OFF
VIka MT1 MT21 0
Emon dvdt0 0 TABLE {ABS(V(MT2,MT1))} (0 0) (2000 2000)
CdVdt dvdt0 dvdt1 100pfd
Rdlay dvdt1 dvdt2 1k
VdVdt dvdt2 MT1 DC 0.0
EdVdt condvdt 0 TABLE {i(vdVdt)-100p*dVdt} (0 0 ) (.1m 10)
RdVdt condvdt 0 1meg
Rseries gate gate1 {(Vgt-0.65)/Igt}
Rshunt gate1 gate2 {0.65/Igt}
Dgkf gate1 gate2 Dgk
Dgkr gate2 gate1 Dgk
VIgf gate2 MT1 DC 0.0
Egate congate 0 TABLE {(ABS(i(VIgf))-0.95*Igt)} (0 0) (1m 10)
Rgate congate 0 1meg
Emain1 main1 0 TABLE {i(VIak)-Ih+5e-3*i(VIgf)/Igt} (0 0) (.1m 1)
Rmain1 main1 0 1meg
Emain2 main2 0 TABLE {v(MT2,MT1)-(Ih*Vtm/Itm)} (0 0) (.1m 1)
Rmain2 main2 0 1meg
Emain3 cnhold 0 TABLE {v(main1,0)*v(main2,0)} (0 0 (1 10)
Rmain3 cnhold 0 1meg
Emain1r main1r 0 TABLE {i(VIka)-Ih-5e-3*i(VIgf)/Igt} (0 0) (.1m 1)
Rmain1r main1r 0 1meg
Emain2r main2r 0 TABLE {v(MT1,MT2)-(Ih*Vtm/Itm)} (0 0) (.1m 1)
Rmain2r main2r 0 1meg
Emain3r cnholdr 0 TABLE {v(main1r,0)*v(main2r,0)} (0 0 (1 10)
Rmain3r cnholdr 0 1meg
Emain4 main4 0 table {(1.0-ABS(i(VIgf))/Igt)} (0 0) (1 1)
Rmain4 main4 0 1meg
Emain5 cnmain 0 table {v(mt2,mt1)-1.05*Vdrm*v(main4)} (0 0) (1 10)
Rmain5 cnmain 0 1meg
Emain5r cnmainr 0 table {v(mt1,mt2)-1.05*Vdrm*v(main4)} (0 0) (1 10)
Rmain5r cnmainr 0 1meg
Eonoff contot 0 TABLE {v(cnmain)+v(congate)+v(cnhold)+v(condvdt)} (0 0) (10 10)
Rton contot dlay1 825
Dton dlay1 cntrol Delay
Rtoff contot dlay2 {2.9E-3/Ton}
Dtoff cntrol dlay2 Delay
Cton cntrol 0 {Ton/454}
Eonoffr contotr 0 TABLE {v(cnmainr)+v(congate)+v(cnholdr)+v(condvdt)} (0 0) (10 10)
Rtonr contotr dlayr1 825
Dtonr dlayr1 cntrolr Delay
Rtoffr contotr dlayr2 {2.9E-3/Ton}
Dtoffr cntrolr dlayr2 Delay
Ctonr cntrolr 0 {Ton/454}
D100 10 MT2 Dvbo
D200 10 gate Dvbo
.MODEL Vswitch vswitch
+ (Ron={(Vtm-0.7)/Itm}, Roff={1.75E-3*Vdrm/Idrm},
+ Von=5.0, Voff=1.5)
.MODEL Dgk D (Is=1E-16 Cjo=50pf Rs=5)
.MODEL Delay D (Is=1E-12 Cjo=5pf Rs=0.01)
.MODEL Dak D (Is=4E-11 Cjo=5pf)
.MODEL Dvbo D (BV=140 IBV=0.2m)
Rfloat gate MT1 1e10
.ENDS k1v14

*PART NUMBER: TLP3120
*MANUFACTURER: TOSHIBA
*VDD=64V,IF=30mA
*All Rights Reserved Copyright (C) Bee Technologies Inc.2009
.SUBCKT TLP3120 1 2 3 4 5 6
V_VSense 1 N99682 0Vdc
M_M1 6 N99662 5 5 NMOS
M_M2 4 N99662 5 5 NMOS
C_C2 2 4 0.8p
D_D1 5 6 DIO
R_R2 2 4 100000G
C_C3 N99682 6 0.8p
D_D2 5 4 DIO
R_R3 N99682 6 100000G
D_D3 N99682 2 DTLP3120
E_E1 N99662 5 VALUE {
+ IF((I(V_Vsense))<0.2m,0,(17.248+3.1500*LOG10(I(V_Vsense)))) }
.MODEL NMOS NMOS
+ LEVEL=3 L=2.0000E-6 W=9.8000 RS=10.000E-3
+ RD=9.6500E-3 VTO=8.032 RDS=22.700E9 TOX=2.0000E-6
+ CGSO=2.3540E-6 CGDO=100.00E-12 RG=40
+ CBD=460.00E-12 MJ=1.5000 PB=3
+ IS=1.0000E-15 N=5 RB=1 GAMMA=0 KAPPA=0
.MODEL DTLP3120 D
+ IS=616.85E-15 N=1.8759 RS=1.4171
+ CJO=16.581E-12 M=.3861 VJ=.91842
+ BV=100 IBV=100.00E-6 TT=5.0000E-9
.MODEL DIO D
+ RS=1.0000E-3 CJO=1.0000E-12 M=.3333 VJ=.75
+ ISR=100.00E-12 BV=100 IBV=100.00E-6 TT=5.0000E-9
.ENDS

*MANUFACTURER : TOSHIBA
*VOFF=60V,IF=50mA
* All Rights Reserved Copyright (C) Bee Technologies Corporation 2009
.SUBCKT TLP172A 1 2 3 4
C_C1 A 4 0.8pF
E_EGS G S VALUE {
+ IF((I(V_Vsense))<0.1m,0,(18.277+3.597*LOG10(I(V_Vsense)))) }
R_R1 A 4 100000G
V_VSense 1 A 0Vdc
D_D1 A 2 DTLP172A
M_M1 4 G S S NMOS
M_M2 3 G S S NMOS
C_C2 2 3 0.8pF
R_R2 2 3 100000G
D_D2 S 4 DIO
D_D3 S 3 DIO
.MODEL DTLP172A D
+ IS=752.31E-15 N=1.8990 RS=.88055 IKF=47.440E-3
+ CJO=10.741E-12 M=.34734 VJ=.73435
+ BV=100 IBV=100.00E-6 TT=5.0000E-9
.MODEL nmos NMOS
+ LEVEL=3 L=2.0000E-6 W=4.03 RS=1m RD=.2 VTO=7.6
+ RDS=60MEG TOX=2u CGSO=950n CGDO=100p
+ CBD=130p RG=135 IS=1.0000E-15 N=5
+ RB=1 GAMMA=0 KAPPA=0
.MODEL DIO D
+ RS=1.0000E-3 CJO=0.10E-12 M=.3333 VJ=.75
+ BV=100 IBV=100.00E-6 TT=5.0000E-9
.ENDS


***** LM329 DZ Model adapted from National Semi Schematic *************
***** July 8, 2005 ************************************************** **
***** Anode=1 Kathode=2 ******************************************
.subckt LM329DZ 1 2
Q10 2 2 3 N1
R1 2 3 50
C1 3 4 15pF
R2 4 6 2k
Q11 3 6 1 N1
R3 5 1 30k
Q12 6 7 3 P1
Q13 7 8 1 N1
C2 7 8 30pF
R4 8 9 10k
R5 9 1 2k
D1 9 2 DZ
R6 2 10 1k
Q14 7 11 10 P1
Q15 11 11 2 P1
Q16 11 9 13 N1
R7 13 1 2.6k
.MODEL DZ D (RS= 0.5164 CJO= 14e-012 BV= 6.2 IBV= 5e-4 TNOM= 27)
.model p1 pnp bf=50
.model n1 npn bf=100 tf=2n cjc=1p is=5e-18 NF=1.07
.ends
.subckt Si9987 SA GND_ VDD SB B INB INA A
*
R Vcc GND_ 100k
A2 INA 0 0 0 0 nina bina 0 BUF Tau=5n Vhigh=3 Vlow=0
A3 INB 0 0 0 0 ninb binb 0 BUF Tau=5n Vhigh=3 Vlow=0
A1 bina ninb 0 0 0 0 N004 0 AND Tau=5n Vhigh=3 Vlow=0
A5 N004 N004 0 0 0 0Z2 0 0 OR Tau=50n Vhigh=3 Vlow=0
A6 bina ninb 0 0 0 0 N006 0 AND Tau=5n Vhigh=3 Vlow=0
A7 N006 N007 0 0 0 0 0Z3 0 OR Tau=50n Vhigh=3 Vlow=0
A8 nina ninb 0 0 0 0 N007 0 AND Tau=5n Vhigh=3 Vlow=0
A9 nina binb 0 0 0 0 N001 0 AND Tau=5n Vhigh=3 Vlow=0
A10 N001 N002 0 0 0 0 0Z1 0 OR Tau=50n Vhigh=3 Vlow=0
A11 nina ninb 0 0 0 0 N002 0 AND Tau=5n Vhigh=3 Vlow=0
A12 nina binb 0 0 0 0 N009 0 AND Tau=5n Vhigh=3 Vlow=0
A13 N009 N009 0 0 0 0Z4 0 0 OR Tau=50n Vhigh=3 Vlow=0
B1 0 Bz1 I=V(z1)*limit(0.1,V(vdd),15)/3 Rpar=1
B2 0 Bz2 I=V(z2)*limit(0.1,V(vdd),15)/3 Rpar=1
B3 0 Bz3 I=V(z3)*limit(0.1,V(vdd),15)/3 Rpar=1
B4 0 Bz4 I=V(z4)*limit(0.1,V(vdd),15)/3 Rpar=1
D1 N003 0Z1 Dx
D2 0Z2 N005 Dx
D3 0Z4 N010 Dx
D4 N008 0Z3 Dx
M1 A Bz1 SA SA N_N
M2 A Bz2 VDD VDD P_P
M3 B Bz4 VDD VDD P_P
M4 B Bz3 SB SB N_N
R1 0 GND_ 1µ
A4 N003 0 0 0 0 0 Z1 0 SCHMITT vt=1.5 vh=0.2 td=50n Vhigh=3 Tau=50n
C1 N003 0 1n
A14 N005 0 0 0 0 0 Z2 0 SCHMITT vt=1.5 vh=0.2 td=50n Vhigh=3 Tau=50n
C2 N005 0 1n
A15 N008 0 0 0 0 0 Z3 0 SCHMITT vt=1.5 vh=0.2 td=50n Vhigh=3 Tau=50n
C3 N008 0 1n
A16 N010 0 0 0 0 0 Z4 0 SCHMITT vt=1.5 vh=0.2 td=50n Vhigh=3 Tau=50n
C4 N010 0 1n
.model dx d Ron=10 Roff=200 Vfwd=0
.model N_N VDMOS( Vto=1.5 Rd=0.2 Rb=20m Kp=30 Cgs=1n Cjo=.3n Is=20p Rds=1Meg)
.model P_P VDMOS(pchan Vto=-1.5 Rd=0.2 Rb=20m Kp=30 Cgs=1n Cjo=.3n Is=20p Rds=1Meg)
.ends



* Rev 2 - May 2013
.SUBCKT MC33063A SwC SwE Osc Com Inv Vcc Ipk DrC ; Rev.2
.param tdt=10n
C1 Vcc COM 20p
I1 Vcc ref TBL(0 0 2.5 2m8 3.5 3m1 40 3m4)
D1 COM ref 1V25
E1 C 0 ref COM 1
A1 ref Inv 0 0 0 0 B 0 SCHMITT Vt=0 Vh=1m tripdt={tdt}
A2 COM Osc 0 0 0 2 A 0 SCHMITT Vt=-0.9 Vh=0.35 trise=50n tfall=0u9 tripdt={tdt}
A3 2 0 0 0 0 0 R 0 BUF ref=0.1 tau=20n tripdt={tdt}
A4 A 0 B 0 C 0 S 0 AND ref=0.9 td=0u2 tripdt={tdt}
A5 S R 0 0 0 0 Q 0 SRFLOP tau=0u1 tripdt={tdt} ic=0
I2 S R pulse(5 0 0 1n 1n 1Meg 2Meg) ; force f/f reset at startup
G1 COM 3 ref COM 0m5
R1 COM 3 10k
C2 Osc 3 12p
cc3 3 com 1p
S1 COM 3 R 0 bump
S2 COM Osc R 0 sink
I3 Vcc Osc TBL(2 0 3 35u)
R2 1 Vcc 10k
C3 1 Ipk 10p
S3 Osc Vcc 1 Ipk comp
C4 DrC COM 10p
S4 DrB Vcc Q 0 drive
cs4 drb com 1p
cswe swe com 20p ;my
rpar1 swe dre 1Meg ;my
cpar2 drb com 1p rpar=10meg ;my
cpar3 drb dre 1p rpar=10meg ;my
R3 DrE SwE 100
Q1 SwC DrE SwE 0 sw
D2 COM Osc Dsub
R4 COM 1 1e7
Q2 DrC DrB DrE 0 sw2 m=85m
.model Dsub d Ron=1 Vfwd=0.6 Epsilon=0.2
.model 1V25 d Ron=1 Roff=466 Vrev=1.25 revEpsilon=10m
.model comp sw level 2 Vt=290m Vh=-100m Ron=300 Roff=1e7 Ilimit=15m
.model sink sw level 2 Vt=0.1 Vh=-1m Ron=1k Roff=1e7 Ilimit=255u Vser=0.1
.model bump sw level 2 Vt=0.1 Vh=-1m Ron=1e7 Roff=1k
.model drive sw level 2 Vt=300m Vh=-10m Ron=200 Roff=1e8 Ilimit=0m7
.model sw npn Is=50f Bf=130 Br=10 Ikf=1.5 Rb=1 Re=30m Rc=0.4 Cje=100p Cjc=20p
.model sw2 npn Is=50f Bf=130 Br=10 Rb=1 Rc=0.4 Cje=100p Cjc=20p
.ENDS MC33063A

.subckt SWeq 1 2 x=1 y=1 Rmin=1u Rmax=1T
R 1 2 R=if((x==y),Rmin,Rmax)
.ends SWeq

.subckt Lrememb 1 2
.param L=1 Rser=1m Rpar=1/Gmin ic=0
C1 3 0 {L} Rser={1/Rpar} Rpar={1/Rser} ic={ic}
G1 1 2 3 0 1
G2 3 0 2 1 1
.ends Lrememb

.subckt Rwire n1 n2 length=1 D=0 S=0 N=1 ro=0.0175u
* Cu-0.0175u, Al=0.028u
R n1 n2 {ro*length*N/(0.7854*d*d+S)}
.ends Rwire
.Subckt Lwire N1 N2 length=1 D=1m
L1 N1 N2 {200n*length*(log(length/D)+0.389*D/length+0.636)}
.ends Lwire
.subckt Cparasitic 1 C=50F
C 1 0 {c}
.ends
.subckt Lparasitic n1 n2 L=4n Rs=1m Rp=1k
L n1 n2 {L} rser={Rs} Rpar={Rp}
.ends
.subckt resUS 1 2 R=1K Cp=0.1p Ls=1n
C 1 2 {Cp} Lser={Ls} Rpar={R}
.ends
.subckt Ammeter p m
V p m 0
.ends

.subckt Rb P M params: Rmax=10 Tau=1u K=10
V1 P s 0
*B1 s M I=V(s,M)/(Rmax*(1-tanh(k*v(q))))
R1 s M R=Rmax*(1-tanh(k*v(q)))
B2 0 q I=i(v1) Rpar=1
C1 q 0 {Tau}
.ends Rb

.subckt Rb_ P M params: Rmax=10 Tau=1u K=10
V1 P s 0
R1 s M R=Rmax/(1+k*uramp(v(q)))
B2 0 q I=i(v1) Rpar=1
C1 q 0 {Tau}
.ends Rb_

.subckt Rskin 1 2 R0=1 F0=100kHz
R1 1 2 R={R0} laplace 1/(1+0.5*sqrt(freq/{F0}))
.ends Rskin


.subckt MultCurrent A B M=5
V A B 0
B A 0 I=(M-1)*i(v)
.ends MultCurrent

.subckt ZXCT1022 GND V+ Vout Vs
R1 Vs R1_N 1Meg
R2 V+ GND 570k
XARB1 R1_N V+ Vout arbsourceARB1
.subckt arbsourceARB1 N1 N2 OUT
B1 OUT 0 V=uramp(((V(n2)-V(n1))*100)+30m)
.ends
C1 R1_N V+ 3p
.ends ZXCT1022


.subckt Lowdrop 1 2 3 Vout=5 Rout=0.1 Imax=0.5 Dropmin=0.2
* in gnd out
S1 3 1 2 3 reg
r 2 3 1Gig
.model reg sw level=2 Vt={-Vout} Vh=-4m Ron={Rout} Roff=1G Ilimit={Imax} Vser={Dropmin}
.ends Lowdrop

.subckt LowdropT 1 2 3 Vout=5 Rout=0.1 Imax=0.5 Dropmin=0.2 tau=1u
* in gnd out
S1 3 1 2 30 reg
R 3 30 1k
rx 2 3 1Gig
C 30 2 {tau/1k}
.model reg sw level=2 Vt={-Vout} Vh=-4m Ron={Rout} Roff=1G Ilimit={Imax} Vser={Dropmin}
.ends LowdropT

.subckt AD1584 1 2 3 Vout=4.096 Rout=0.25 Imax=15mA Dropmin=0.2 tau=1u
* in gnd out
I in gnd pwl 0 0 2 70uA
S1 3 1 2 30 reg
R 3 30 1k
rx 2 3 1Gig
C 30 2 {tau/1k}
.model reg sw level=2 Vt={-Vout} Vh=-.01m Ron={Rout} Roff=1G Ilimit={Imax} Vser={Dropmin}
.ends AD1584

.subckt Rwire n1 n2 length=1 D=0 S=0 N=1 ro=0.0175u
* Cu-0.0175u, Al=0.028u
R n1 n2 {ro*length*N/(0.7854*d*d+S)}
.ends Rwire
.Subckt Lwire N1 N2 length=1 D=1m
L1 N1 N2 {200n*length*(log(length/D)+0.389*D/length+0.636)}
.ends Lwire
.subckt Cparasitic 1 C=50F
C 1 0 {c}
.ends
.subckt Lparasitic n1 n2 L=4n Rs=1m Rp=1k
L n1 n2 {L} rser={Rs} Rpar={Rp}
.ends

.subckt resUS 1 2 R=1K Cp=0.1p Ls=1n Rmin=1
C 1 2 {Cp} Lser={Ls} Rpar={R} Rser={Rmin}
.ends

* C1
* | B1
* | | E1
* | | | E2
* | | | | B2
* | | | | | C2
* | | | | | |
.SUBCKT MAT02 1 2 3 5 6 7
Q1 1 2 3 NMAT
Q2 7 6 5 NMAT
D1 3 2 DMAT1
D2 5 6 DMAT1
D3 4 3 DMAT1
D4 4 5 DMAT1
D5 4 1 DMAT2
D6 4 7 DMAT2
.MODEL DMAT1 D(IS=2E-16 RS=20)
.MODEL DMAT2 D(IS=1E-14 VJ=0.6 CJO=40E-12)
.MODEL NMAT NPN(BF=500 IS=6E-13 VAF=150 BR=0.5 VAR=7
+ RB=13 RC=10 RE=0.3 CJE=82E-12 VJE=0.7 MJE=0.4 TF=0.3E-9
+ TR=5E-9 CJC=33E-12 VJC=0.55 MJC=0.5 CJS=0 IKF=0.300
+ PTF=25)
.ENDS


* node assignments
* c1
* | b1
* | | e1
* | | | e2
* | | | | b2
* | | | | | c2
* | | | | | |
.subckt mat03 1 2 3 5 6 7
q1 1 2 3 pmat
q2 7 6 5 pmat
d1 2 3 dmat1
d2 6 5 dmat1
d3 3 4 dmat1
d4 5 4 dmat1
d5 1 4 dmat2
d6 7 4 dmat2
.model dmat1 d(is=7.2e-16 rs=20)
.model dmat2 d(is=1e-14 vj=0.6 cjo=68p)
.model pmat pnp(bf=160 is=1.4e-13 vaf=60 br=5 var=7 rb=16 rc=12 re=0.35 cje=57p vje=0.7 mje=0.4 tf=1.08n tr=3e-8 cjc=40p vjc=0.55 mjc=0.5 ikf=160m)
.ends

.Subckt L200CV IN LIM GND REF OUT
rt in 7 1Meg
bt in 7 i=0.001*uramp(1-uramp(1-v(in,7)/0.3))
I1 IN LIM DC 1u
B4 N2 GND i=uramp(v(out,lim)-0.45)
R4 13 outv 10K
B3 N1 N2 i=uramp(v(n1,n2)-0.1)
V1 N1 GND DC 0.7
B2 N2 GND i=uramp(v(outv,out)-0.05)
R3 7 N2 10K
C1 N2 refv 100p
Q3 GND N2 7 p
R2 outv OUT 16m
Q2 IN 13 outv n area=10
Q1 IN 7 13 n
c 7 gnd 3p
bg1 n2 gnd i=uramp(v(refv,opor))
R1 refv REF 10K
B1 opor GND v=2.77*u(v(in,gnd)-4.5)
.model n npn cje=2p tf=1n
.model p pnp tf=30n bf=20
.ends L200CV

* Photoresistor
.subckt NORP12 Light R+ R-
B1 R+ R- I=V(R+,R-)*V(l1)**0.76/113k Rpar=50Meg
E1 N001 0 Light 0 1
*C1 l1 0 Q=51.95u*ln(1+ABS(x)*7.8m)
C0 l1 z 51.95u
VA z 0 0
Bx 0 y i=ln(1+ABS(v(l1)*7.8m)) rpar=1 cpar=10n
Bi l1 0 i=i(va)*(v(y)-1)
C2 R+ R- 3.5p
D2 N001 l1 Dsw
R1 Light 0 1K
.model dsw D(Ron=17k Roff=100k Vfwd=0)
.ends norp12

.subckt L-93WSRSGC 1 2 3
Dr 1 2 red
Dg 3 2 green
.model red d is=4.844e-22 rs=2.964 N=1.5339 Cjo=45p Eg=2 Vj=2 m=0.2
.model green d is=3.2938e-21 rs=8.556 N=1.8107 Cjo=15p Eg=2.4 Vj=2.5 m=0.2
.ends

*
.subckt SWoff 1 2
roff 1 2 100Gig
.ends

.subckt SWon 1 2
Vkz 1 2 0
.ends

.subckt vilka2 1 2
r1 1 0 1Gig
r2 2 0 1Gig
.ends vilka2

.subckt vilka3 1 2 3
r1 1 0 1Gig
r2 2 0 1Gig
r3 3 0 1Gig
.ends vilka3

.subckt vilka4 1 2 3 4
r1 1 0 1Gig
r2 2 0 1Gig
r3 3 0 1Gig
r4 4 0 1Gig
.ends vilka4

.subckt vilka5 1 2 3 4 5
r1 1 0 1Gig
r2 2 0 1Gig
r3 3 0 1Gig
r4 4 0 1Gig
r5 5 0 1gig
.ends vilka5

.subckt vilka6 1 2 3 4 5 6
r1 1 0 1Gig
r2 2 0 1Gig
r3 3 0 1Gig
r4 4 0 1Gig
r5 5 0 1gig
r6 6 0 1gig
.ends vilka6

.subckt vilka7 1 2 3 4 5 6
r1 1 0 1Gig
r2 2 0 1Gig
r3 3 0 1Gig
r4 4 0 1Gig
r5 5 0 1gig
r6 6 0 1gig
r7 7 0 1gig
.ends vilka7

.subckt vilka9 1 2 3 4 5 6
r1 1 0 1Gig
r2 2 0 1Gig
r3 3 0 1Gig
r4 4 0 1Gig
r5 5 0 1gig
r6 6 0 1gig
r7 7 0 1gig
r8 8 0 1gig
r9 9 0 1gig
.ends vilka9



.subckt rozetka2 1 2
r1 1 0 1Gig
r2 2 0 1Gig
.ends rozetka2

.subckt rozetka3 1 2 3
r1 1 0 1Gig
r2 2 0 1Gig
r3 3 0 1Gig
.ends rozetka3

.subckt rozetka4 1 2 3 4
r1 1 0 1Gig
r2 2 0 1Gig
r3 3 0 1Gig
r4 4 0 1Gig
.ends rozetka4

.subckt rozetka5 1 2 3 4 5
r1 1 0 1Gig
r2 2 0 1Gig
r3 3 0 1Gig
r4 4 0 1Gig
r5 5 0 1gig
.ends rozetka5

.subckt rozetka6 1 2 3 4 5 6
r1 1 0 1Gig
r2 2 0 1Gig
r3 3 0 1Gig
r4 4 0 1Gig
r5 5 0 1Gig
r6 6 0 1gig
.ends rozetka6

.subckt rozetka7 1 2 3 4 5 6 7
r1 1 0 1Gig
r2 2 0 1Gig
r3 3 0 1Gig
r4 4 0 1Gig
r5 5 0 1Gig
r6 6 0 1gig
r7 7 0 1gig
.ends rozetka7

.subckt rozetka9 1 2 3 4 5 6 7 8 9
r1 1 0 1Gig
r2 2 0 1Gig
r3 3 0 1Gig
r4 4 0 1Gig
r5 5 0 1Gig
r6 6 0 1gig
r7 7 0 1gig
r8 8 0 1gig
r9 9 0 1gig
.ends rozetka9

.subckt GND1 1
vkz 1 0 0
.ends GND1

.subckt GNDFLOAT 1 Cp=1pF Rp=1G
c 1 0 {Cp} Rpar={Rp}
.ends GNDFLOAT

.subckt g_loop L I1 I2 B COM H
G1 COM N001 L I1 {1µ/(A*N)}
C1 N001 COM 1µ
E1 B COM N001 COM 1
V1 I1 I2 0
H1 H COM V1 {N/Lm}
.ends g_loop



.SUBCKT Shock_Sensor 1 3 p Cpar=480pf G=0.153p
C0 1 2 {Cpar} Rpar=500Meg
E 2 3 p 0 {G/Cpar}
.ENDS

.SUBCKT XTAL_param 1 2 FREQ=1Meg Rser=750 Cpar=13pf Q=1000
+ Rpar=1e24 IC_L_current=0.5m IC__C_Volt=0
LX 1 3 {((Q*RSer)/(2*PI*FREQ))} IC={IC_L_current} Rser={RSer} Rpar=1e24
CX 3 2 {(1/(Q*2*PI*FREQ*RSer))} ic={IC__C_Volt}
C0 1 2 {Cpar} Rpar={Rpar}
.ENDS

* K=Cpar/Cx -capacitive ratio
.SUBCKT XTAL_param2 1 2 FREQ=32768 Rser=30k Cpar=1pf K=400
+ Rpar=1e24 IC_L_current=1u
LX 1 3 {K/((2*PI*FREQ)**2*Cpar)} IC={IC_L_current} Rser={RSer} Rpar=1e24
CX 3 2 {Cpar/K}
C0 1 2 {Cpar} Rpar={Rpar}
.ENDS

.Subckt CRYSTAL_9_OVERTONE 1 2 Freq=10Meg C0=3p K=300
+ Rm1=20 rm3=50 rm5=100 rm7=150 rm9=200 ic1=100u ic3=100u ic5=100u ic7=100u ic9=100u
.param Cm1=C0/K
.param W=2*Pi*Freq
.param Lm=1/(W**2*Cm1)
Lm1 1 3 {Lm} ic={ic1} Rser={Rm1} Rpar=1e24
Lm3 1 4 {Lm} ic={ic3} Rser={Rm3} Rpar=1e24
Lm5 1 5 {Lm} ic={ic5} Rser={Rm5} Rpar=1e24
Lm7 1 6 {Lm} ic={ic7} Rser={Rm7} Rpar=1e24
Lm9 1 7 {Lm} ic={ic9} Rser={Rm9} Rpar=1e24
Cm1 3 2 {Cm1}
Cm3 4 2 {Cm1/9}
Cm5 5 2 {Cm1/25}
Cm7 6 2 {Cm1/49}
Cm9 7 2 {Cm1/81}
C0 1 2 {C0} Rpar=1e24
.ends


.subckt BridgeRectifier Vin1 Vin2 V- V+ Vf=0.6 r=1m Rut=1Gig
d1 vin1 V+ did
d2 vin2 V+ did
d3 v- vin1 did
d4 v- Vin2 did
.model did d Ron={r} Roff={Rut} Vfwd={vf}
.ends BridgeRectifier

.Subckt ntc_resistor n1 n2
B1 n1 n2 i=v(n1,n2)/{R0}*exp({b}*(1/(273+{T0})-1/(273+TEMP)))
.ends

.Subckt ntc_resistorT n1 n2 T
B1 n1 n2 i=v(n1,n2)/{R0}*exp({b}*(1/(273+{T0})-1/(273+V(T))))
.ends

*
.SUBCKT PDTA143XT 1 2 3
*
R1 1 22 4.7k
Cres1 1 3 4.3E-13
R21 22 11 5k
R22 11 2 5k
Cres2 11 3 1.3E-13
*
Q1 3 22 2 PDTA143XT
*
.MODEL PDTA143XT PNP
+ IS=2.014E-14 NF=0.9974
+ ISE=6.578f NE=1.45 BF=339.3 IKF=0.079 VAF=39.15 NR=0.9952 ISC=1.948p
+ NC=1.55 BR=12.01 IKR=0.015 VAR=16.5 RB=10 IRB=5E-06 RBM=5E-06 RE=0.673 RC=0.718
+ CJE=1.104E-11 VJE=0.9 MJE=0.2748 TF=1E-32 XTF=0 VTF=1E+03 ITF=0 PTF=0 CJC=6.4p
+ VJC=0.499 MJC=0.4435 XTB=0 XTI=3 EG=1.11 FC=0.5
.ENDS

.SUBCKT PDTA143ET 1 2 3
*
R1 1 22 4.7E+03
Cres1 1 3 4.3E-13
R21 22 11 2.35E+03
R22 11 2 2.35E+03
Cres2 11 3 1.4E-13
*
Q1 3 22 2 PDTA143ET
*
.MODEL PDTA143ET PNP
+ IS=2.014E-14
+ NF=0.9974
+ ISE=6.578f
+ NE=1.45
+ BF=339.3
+ IKF=0.079
+ VAF=39.15
+ NR=0.9952
+ ISC=1.948p
+ NC=1.55
+ BR=12.01
+ IKR=0.015
+ VAR=16.5
+ RB=10
+ IRB=5E-06
+ RBM=5E-06
+ RE=0.673
+ RC=0.718
+ CJE=1.104E-11
+ VJE=0.9
+ MJE=0.2748
+ TF=1E-32
+ XTF=0
+ VTF=1E+03
+ ITF=0
+ PTF=0
+ CJC=6.4p
+ VJC=0.499
+ MJC=0.4435
+ XCJC=1
+ TR=1E-32
+ CJS=0
+ VJS=0.75
+ MJS=0.333
+ XTB=0
+ XTI=3
+ EG=1.11
+ FC=0.5
.ENDS
*
.SUBCKT PDTA144ET 1 2 3
*
R1 1 22 4.7E+04
Cres1 1 3 4.8E-13
R21 22 11 2.35E+04
R22 11 2 2.35E+04
Cres2 11 3 1.5E-13
*
Q1 3 22 2 PDTA144ET
*
.MODEL PDTA144ET PNP
+ IS=2.014E-14
+ NF=0.9974
+ ISE=6.578f
+ NE=1.45
+ BF=339.3
+ IKF=0.079
+ VAF=39.15
+ NR=0.9952
+ ISC=1.948p
+ NC=1.55
+ BR=12.01
+ IKR=0.015
+ VAR=16.5
+ RB=10
+ IRB=5E-06
+ RBM=5E-06
+ RE=0.673
+ RC=0.718
+ CJE=1.104E-11
+ VJE=0.9
+ MJE=0.2748
+ TF=1E-32
+ XTF=0
+ VTF=1E+03
+ ITF=0
+ PTF=0
+ CJC=6.4p
+ VJC=0.499
+ MJC=0.4435
+ XTB=0
+ XTI=3
+ EG=1.11
+ FC=0.5
.ENDS


*
.SUBCKT PDTC143ET 1 2 3
*
R1 1 22 4.7E+03
Cres1 1 3 4.3E-13
R21 22 11 2.35E+03
R22 11 2 2.35E+03
Cres2 11 3 1.4E-13
*
Q1 3 22 2 PDTC143ET
*
.MODEL PDTC143ET NPN IS=1.822E-14 NF=0.9932 ISE=2.894E-16 NE=1.4 BF=354.4 IKF=0.246 VAF=182 NR=0.9931 ISC=9.982p NC=1.763 BR=14.99 IKR=0.05 VAR=17.9 RB=10 IRB=5E-06 RBM=5 RE=0.649 RC=1.101 XTB=0 EG=1.11 XTI=3 CJE=1.32E-11 VJE=0.8401 MJE=0.3622 XTF=0 VTF=1E+03 ITF=0 PTF=0 CJC=3.821p VJC=0.5986 MJC=0.3745 XCJC=0.6193 FC=0.5
.ENDS
*
.SUBCKT PDTC144ET 1 2 3
*
R1 1 22 4.7E+04
Cres1 1 3 4.8E-13
R21 22 11 2.35E+04
R22 11 2 2.35E+04
Cres2 11 3 1.5E-13
*
Q1 3 22 2 PDTC144ET
*
.MODEL PDTC144ET NPN
+ IS=1.822E-14
+ NF=0.9932
+ ISE=2.894E-16
+ NE=1.4
+ BF=354.4
+ IKF=0.246
+ VAF=182
+ NR=0.9931
+ ISC=9.982p
+ NC=1.763
+ BR=14.99
+ IKR=0.05
+ VAR=17.9
+ RB=10
+ IRB=5E-06
+ RBM=5
+ RE=0.649
+ RC=1.101
+ XTB=0
+ EG=1.11
+ XTI=3
+ CJE=1.32E-11
+ VJE=0.8401
+ MJE=0.3622
+ TF=1E-32
+ XTF=0
+ VTF=1E+03
+ ITF=0
+ PTF=0
+ CJC=3.821p
+ VJC=0.5986
+ MJC=0.3745
+ XCJC=0.6193
+ TR=1E-32
+ CJS=0
+ VJS=0.75
+ MJS=0.333
+ FC=0.5
.ENDS

.subckt DDTC144ECA 1 2 3
Rb 1 11 47k
rbe 11 0 47k
q 3 11 2 DI_DDTC144
.MODEL DI_DDTC144 NPN (IS=9.98f NF=1.00 BF=766 VAF=127
+ IKF=54.7m ISE=2.14p NE=2.00 BR=4.00 NR=1.00
+ VAR=24.0 IKR=0.135 RE=0.815 RB=3.26 RC=0.326
+ XTB=1.5 CJE=20.7p VJE=1.10 MJE=0.500 CJC=11.4p VJC=0.300
+ MJC=0.300 TF=567p TR=119n EG=1.12 )
.ends

.subckt DDA143TU E1 B1 C2 C1 B2 E2
R11 B1 1 4.7k
R21 B2 2 4.7k
q1 C1 1 E1 DI_DDA143TU
q2 C2 2 E2 DI_DDA143TU
.MODEL DI_DDA143TU PNP (IS=9.98f NF=1.00 BF=766 VAF=127
+ IKF=54.7m ISE=2.14p NE=2 BR=4 NR=1
+ VAR=24.0 IKR=0.135 RE=0.815 RB=3.26 RC=0.326
+ XTB=1.5 CJE=20.7p VJE=1.1 MJE=0.5 CJC=11.4p VJC=0.3
+ MJC=0.3 TF=567p TR=119n EG=1.12 )
.ends DDA143TU
.subckt DDA144EU E1 B1 C2 C1 B2 E2
R11 B1 1 47k
R12 1 E1 47k
R21 B2 2 47k
R22 2 E2 47k
q1 C1 1 E1 DI_DDA144EU
q2 C2 2 E2 DI_DDA144EU
.MODEL DI_DDA144EU PNP (IS=9.98f NF=1.00 BF=766 VAF=127
+ IKF=54.7m ISE=2.14p NE=2 BR=4 NR=1
+ VAR=24.0 IKR=0.135 RE=0.815 RB=3.26 RC=0.326
+ XTB=1.5 CJE=20.7p VJE=1.1 MJE=0.5 CJC=11.4p VJC=0.3
+ MJC=0.3 TF=567p TR=119n EG=1.12 )
.ends DDA144EU
.subckt DDA123JU E1 B1 C2 C1 B2 E2
R11 B1 1 2.2k
R12 1 E1 47k
R21 B2 2 2.2k
R22 2 E2 47k
q1 C1 1 E1 DI_DDA143EU
q2 C2 2 E2 DI_DDA143EU
.MODEL DI_DDA143EU PNP (IS=9.98f NF=1.00 BF=766 VAF=127
+ IKF=54.7m ISE=2.14p NE=2 BR=4 NR=1
+ VAR=24.0 IKR=0.135 RE=0.815 RB=3.26 RC=0.326
+ XTB=1.5 CJE=20.7p VJE=1.1 MJE=0.5 CJC=11.4p VJC=0.3
+ MJC=0.3 TF=567p TR=119n EG=1.12 )
.ends DDA123JU

*Motorola NPN Low Noise, High-Frequency Transistor
********************
* Version 1.0.1a
.SUBCKT MRF9411 100 200 300
LCL1 100 101 1.8E-10
LCL2 101 102 1.8E-10
LCL3 102 199 1.8E-10
LBL1 200 201 1.3E-10
LBL2 201 202 1.3E-10
LBL3 202 203 1.3E-10
LBB 203 299 6.5E-10
LEL11 350 351 1.3E-10
LEL12 351 352 1.3E-10
LEL13 352 353 1.3E-10
LEB1 353 399 6.5E-10
LEL21 340 341 1.3E-10
LEL22 341 342 1.3E-10
LEL23 342 343 1.3E-10
LEB2 343 399 6.5E-10
CBE11 201 351 1E-14
CBE12 202 352 1E-14
CBE21 203 343 3E-14
CCB 203 199 1E-14
CCE21 101 341 1.2E-13
CCE22 102 342 1.2E-13
CCE11 199 353 1.8E-13
RX1 350 300 0.001
RX2 340 300 0.001
X1 199 299 399 RF9411
.ENDS MRF9411
*
.SUBCKT RF9411 1 2 3
CBPAD 2 1 4E-14
CEPAD 1 3 8E-14
Q1 1 2 3 DMRF9411
*
.MODEL DMRF9411 NPN
+ IS=4.558E-16
+ BF=136
+ NF=0.9979
+ VAF=21
+ IKF=0.7
+ ISE=3.087E-14
+ NE=2
+ BR=42
+ NR=0.993
+ VAR=2.9
+ IKR=0.016
+ ISC=3.411E-17
+ NC=1.087
+ RB=7
+ IRB=8E-05
+ RBM=8
+ RE=0.45
+ RC=8
+ XTB=0
+ EG=1.11
+ XTI=3
+ CJE=8.6E-13
+ VJE=0.94
+ MJE=0.42
+ CJC=4.3E-13
+ VJC=0.35
+ MJC=0.21
+ XCJC=0.44
+ TF=1.3E-11
+ XTF=400
+ VTF=6
+ ITF=1.5
+ PTF=47
+ TR=1E-09
+ FC=0.98
.ENDS RF9411



*ATF-34143 packaged FET model
.SUBCKT ATF34143 16 14 15
RR2 2 1 0.1
*RR9 4 3 0.1
RR9 4 3 1.1 ;my
RR5 1 5 0.1
LL2 5 SOURCE 0.1nH
LL7 SOURCE 7 0.1nH
LL6 SOURCE 8 0.1nH
RR6 8 2 0.1
RR7 7 2 0.1
RR8 DRAIN 9 0.1
LL5 9 11 0.1nH
LL8 2 15 0.05nH
LL10 15 1 0.1nH
LL1 14 4 0.8nH
LL9 11 16 0.6nH
CC3 11 2 0.15p
CC4 1 4 0.15p
LL4 3 GATE 0.1nH
dpar gate source mydi ;my
.model mydi d is=2p n=1.32137 rs=1.5 ;my
Rgs GATE SOURCE 8.8Meg ; my
Z1 DRAIN GATE SOURCE BATF34143
.MODEL BATF34143 NMF (Vto=-0.95, Beta=0.24, B=0.8, Alpha=4,
+ Lambda=0.09, Rd=0.25, Rs=0.125,Cgs=0.8p, Cgd=0.16p, Pb=0.7 is=1e-18 )
.ENDS

.Subckt BC847BS 1 2 3 4 5 6
Q1 6 2 1 qbc847b
Q2 3 5 4 qbc847b
.model qbc847b npn is=18.22f bf=324 nf=0.9932 vaf=82 ikf=109m ise=2.894e-16 ne=1.4 br=8.29 nr=0.993 var=18 ikr=90m
+ isc=9.98p nc=1.763 rb=10 irb=5u rbm=5 re=0.649 rc=0.7014 cje=1.244e-11 vje=0.7579 mje=0.3656 tf=4.908e-10 xtf=9.51
+ vtf=2.927 itf=313m ptf=0 cjc=3.35p vjc=0.5463 mjc=0.391 xcjc=0.6193 tr=90n xtb=1 eg=1.11 xti=3 fc=0.979
.ends


.Subckt BFS481 1 2 3 4 5 6
xQ1 6 2 1 BFS481_IN
xQ2 3 5 4 BFS481_IN
.SUBCKT BFS481_IN 2 1 3 ;SOT363S
LBI 1 10 0.42nH ; LBI
LCI 2 20 0.09nH ; LCI
LEI 3 30 0.5nH ; LEI
CCB 10 20 53fF ; CCB
CCE 20 30 119fF ; CCE