* SCR behavioral model
* Duane Hanselman 2007-08-21

.subckt SCRB A G C
D1 n1 G D
WSCR A n1 V1 Iswitch
V1 G C 0
.model D D
.model Iswitch CSW(Ron=0.1 Roff=1MEG It=1m)
.ends
