* SCH2080KE_LT
* SiC NMOSFET with SiC Schottky Barrier Diode model
* 1200V 40A 80mohm
* Model Generated by ROHM
* All Rights Reserved
* Commercial Use or Resale Restricted
* Date: 2018/07/11
*********************D G S
.SUBCKT SCH2080KE_LT 1 2 3
.PARAM T0=25
.FUNC R1(I)   {44.91m*I*EXP((TEMP-T0)/115.5*EXP((TEMP-T0)/-731.5))+
+              63.53p*I*ABS(I)**4.974*EXP((TEMP-T0)/62.99)}
.FUNC V1(I)   {414.2m*ASINH(I/0.3482)*EXP((TEMP-T0)/-1119)+82.75m*I*EXP((TEMP-T0)/606.4)}
.FUNC V2(V)   {1.830u*V**(8.009*EXP((TEMP-T0)/-1679))*EXP((TEMP-T0)/29.27*EXP((TEMP-T0)/-633.5))}
.FUNC I1(V,W) {V*(1+(0.1076+0.2932*TANH(V/2.756))*EXP((TEMP-T0)/-231.4))*
+              W/(ABS(W)+(1.076+2.932*TANH(V/2.756))*EXP((TEMP-T0)/-231.4))}
V1  1 11 0
E1 11 12 VALUE={R1(I(V1))}
R1  2 22 10.9
L1  3 32 2.767n
R2  3 32 10
E6 41  0 VALUE={MIN(MAX(V(22,32),0),22)}
V6 41 42 0
E7 42 43 VALUE={V1(I(V6))}
G6 43  0 VALUE={MIN(MAX(V2(MAX(V(43),0)),-200),200)}
C6 43  0 1p
R6 43  0 1T
G1 12 32 VALUE={MIN(MAX(I1(MAX(I(V6),0),V(12,32)),-100),100)}
C7 12 32 1p
R7 12 32 1T
V2 22 23 0
C1 23 12 1p
G2 22 12 VALUE={I(V2)*(2425*(MIN(MAX(V(22,12),0.5656),0.736)-0.5656)+
+               1903*(1-491.3*TANH(MIN(V(22,12),0.5656)/491.3)/1.131)**-0.5071)*
+              (0.4186*TANH((V(22,12)+1.428)*1.268)+0.5814)}
C2 22 32 2.064n
R3 22  3 1G
********* ********* ********* ********* ********* ********* ********* ********* ********* ********* *********
.FUNC R201(I) {40.48m*I*EXP((TEMP-T0)/155.8)}
.FUNC I201(V) {2.102f*(EXP(V/0.02760/EXP((TEMP-T0)/405.3))-1)*EXP((TEMP-T0)/7.850*EXP((TEMP-T0)/-601.3))+
+              TANH(V/0.1)*(710.4p*EXP(-V/198.3)*EXP((TEMP-T0)/54.40)+
+              26.02f*EXP(-V/63.22/EXP((TEMP-T0)/178.9))*EXP((TEMP-T0)/8.493*EXP((TEMP-T0)/-600)))}
V201   3 201 0
E201 201 202 VALUE={R201(I(V201)/2)}
V202 202 203 0
C201 203   1 2p
G201 202   1 VALUE={2*MIN(MAX(I201(V(202,1)),-100),100)+I(V202)*(913.9*(MAX(V(202,1),0.5607)-0.5607)+
+                   727.2*(1-360.9*TANH(MIN(V(202,1),0.5607)/360.9)/1.121)**-0.4987)}
R201 202   1 1T
.ENDS SCH2080KE_LT
* SCT2080KE_LT
* SiC NMOSFET model
* 1200V 40A 80mohm
* Model Generated by ROHM
* All Rights Reserved
* Commercial Use or Resale Restricted
* Date: 2018/07/09
*********************D G S
.SUBCKT SCT2080KE_LT 1 2 3
.PARAM T0=25
.FUNC R1(I)   {44.91m*I*EXP((TEMP-T0)/115.5*EXP((TEMP-T0)/-731.5))+
+              63.53p*I*ABS(I)**4.974*EXP((TEMP-T0)/62.99)}
.FUNC V1(I)   {414.2m*ASINH(I/0.3482)*EXP((TEMP-T0)/-1119)+82.75m*I*EXP((TEMP-T0)/606.4)}
.FUNC V2(V)   {1.830u*V**(8.009*EXP((TEMP-T0)/-1679))*EXP((TEMP-T0)/29.27*EXP((TEMP-T0)/-633.5))}
.FUNC I1(V,W) {V*(1+(0.1076+0.2932*TANH(V/2.756))*EXP((TEMP-T0)/-231.4))*
+              W/(ABS(W)+(1.076+2.932*TANH(V/2.756))*EXP((TEMP-T0)/-231.4))}
V1  1 11 0
E1 11 12 VALUE={R1(I(V1))}
R1  2 22 10.9
L1  3 32 2.767n
R2  3 32 10
E6 41  0 VALUE={MIN(MAX(V(22,32),0),22)}
V6 41 42 0
E7 42 43 VALUE={V1(I(V6))}
G6 43  0 VALUE={MIN(MAX(V2(MAX(V(43),0)),-200),200)}
C6 43  0 1p
R6 43  0 1T
G1 12 32 VALUE={MIN(MAX(I1(MAX(I(V6),0),V(12,32)),-100),100)}
C7 12 32 1p
R7 12 32 1T
V2 22 23 0
C1 23 12 1p
G2 22 12 VALUE={I(V2)*(2425*(MIN(MAX(V(22,12),0.5656),0.736)-0.5656)+
+               1903*(1-491.3*TANH(MIN(V(22,12),0.5656)/491.3)/1.131)**-0.5071)*
+              (0.4186*TANH((V(22,12)+1.428)*1.268)+0.5814)}
C2 22 32 2.064n
R3 22  3 1G
********* ********* ********* ********* ********* ********* ********* ********* ********* ********* *********
.FUNC R101(I)   {965.9m*ASINH(I/3.136)+41.21m*I}
.FUNC I101(V)   {458.9n*(EXP(V/0.1411/EXP((TEMP-T0)/-632.0))-1)*EXP((TEMP-T0)/69.35*EXP((TEMP-T0)/-151.6))-
+                1E-120*(EXP(-V/5)-1)}
V101   3 101 0
E101 101 102 VALUE={R101(I(V101))}
V102 102 103 0
C101 103   1 1p
G101 102   1 VALUE={MIN(MAX(I101(V(102,1)),-100),100)+I(V102)*(835.8*(MAX(V(102,1),0.8457)-0.8457)+
+                   1053*(1-739.2*TANH(MIN(V(102,1),0.8457)/739.2)/1.691)**-0.4810)}
R101 102   1 1T
.ENDS SCT2080KE_LT
* SCT2120AF_LT
* SiC NMOSFET model
* 650V 29A 120mOhm
* Model Generated by ROHM
* All Rights Reserved
* Commercial Use or Resale Restricted
* Date: 2018/07/04
*********************D G S
.SUBCKT SCT2120AF_LT 1 2 3
.PARAM T0=25
.FUNC R1(I)   {21.73m*I*EXP((TEMP-T0)/102.7)+17.34u*I*ABS(I)**1.877*EXP((TEMP-T0)/88.65)}
.FUNC V1(I)   {474.8m*ASINH(I/0.3582)*EXP((TEMP-T0)/-2132)+103.4m*I*EXP((TEMP-T0)/497.8)}
.FUNC V2(V)   {2.087u*V**(7.487*EXP((TEMP-T0)/-2231))*EXP((TEMP-T0)/35.85*EXP((TEMP-T0)/-1137))}
.FUNC I1(V,W) {V*(1+(0.2158+V/78.37)*EXP((TEMP-T0)/-849.1))*W/(ABS(W)+(2.158+V/7.837)*EXP((TEMP-T0)/-849.1))}
V1  1 11 0
E1 11 12 VALUE={R1(I(V1))}
R1  2 22 16.3
L1  3 32 5.534n
R2  3 32 10
E6 41  0 VALUE={MIN(MAX(V(22,32),0),22)}
V6 41 42 0
E7 42 43 VALUE={V1(I(V6))}
G6 43  0 VALUE={MIN(MAX(V2(MAX(V(43),0)),-150),150)}
C6 43  0 1p
R6 43  0 1T
G1 12 32 VALUE={MIN(MAX(I1(MAX(I(V6),0),V(12,32)),-100),100)}
C7 12 32 1p
R7 12 32 1T
V2 22 23 0
C1 23 12 1p
G2 22 12 VALUE={I(V2)*(1439*(MIN(MAX(V(22,12),0.7423),0.897)-0.7423)+
+               1113*(1-118.4*TANH(MIN(V(22,12),0.7423)/118.4)/1.485)**-0.6231)*
+              (0.4121*TANH((V(22,12)+1.484)*1.397)+0.5879)}
C2 22 32 1.186n
R3 22  3 1G
********* ********* ********* ********* ********* ********* ********* ********* ********* ********* *********
.FUNC R101(I) {422.8m*ASINH(I/0.8806)+49.53m*I}
.FUNC I101(V) {950.5n*(EXP(V/0.1536/EXP((TEMP-T0)/-644.4))-1)*EXP((TEMP-T0)/89.10*EXP((TEMP-T0)/-298.3))-
+              1E-70*(EXP(-V/5)-1)}
V101   3 101 0
E101 101 102 VALUE={R101(I(V101))}
V102 102 103 0
C101 103   1 1p
G101 102   1 VALUE={MIN(MAX(I101(V(102,1)),-100),100)+I(V102)*(527.7*(MAX(V(102,1),0.9216)-0.9216)+
+                   759.5*(1-289.2*TANH(MIN(V(102,1),0.9216)/289.2)/1.843)**-0.4642)}
R101 102   1 1T
.ENDS SCT2120AF_LT
* SCT2160KE_LT
* SiC NMOSFET model
* 1200V 22A 160mohm
* Model Generated by ROHM
* All Rights Reserved
* Commercial Use or Resale Restricted
* Date: 2018/07/11
*********************D G S
.SUBCKT SCT2160KE_LT 1 2 3
.PARAM T0=25
.FUNC R1(I)   {94.03m*I*EXP((TEMP-T0)/159.8*EXP((TEMP-T0)/3412))+
+              18.45u*I*ABS(I)**2.127*EXP((TEMP-T0)/79.13)}
.FUNC V1(I)   {427.8m*ASINH(I/0.2965)*EXP((TEMP-T0)/-1046)+118.0m*I*EXP((TEMP-T0)/392.9)}
.FUNC V2(V)   {2.871u*V**(7.369*EXP((TEMP-T0)/-2335))*EXP((TEMP-T0)/37.14*EXP((TEMP-T0)/-853.5))}
.FUNC I1(V,W) {V*(1+(0.1697+0.1875*TANH(V/14.58))*EXP((TEMP-T0)/-255.4))*
+              W/(ABS(W)+(1.697+1.875*TANH(V/14.58))*EXP((TEMP-T0)/-255.4))}
V1  1 11 0
E1 11 12 VALUE={R1(I(V1))}
R1  2 22 16.2
L1  3 32 5.534n
R2  3 32 10
E6 41  0 VALUE={MIN(MAX(V(22,32),0),22)}
V6 41 42 0
E7 42 43 VALUE={V1(I(V6))}
G6 43  0 VALUE={MIN(MAX(V2(MAX(V(43),0)),-200),200)}
C6 43  0 1p
R6 43  0 1T
G1 12 32 VALUE={MIN(MAX(I1(MAX(I(V6),0),V(12,32)),-100),100)}
C7 12 32 1p
R7 12 32 1T
V2 22 23 0
C1 23 12 1p
G2 22 12 VALUE={I(V2)*(1662*(MIN(MAX(V(22,12),0.6966),0.771)-0.6966)+
+               1167*(1-292.0*TANH(MIN(V(22,12),0.6966)/292.0)/1.393)**-0.6377)*
+              (0.4172*TANH((V(22,12)+1.478)*1.047)+0.5828)}
C2 22 32 1.192n
R3 22  3 1G
********* ********* ********* ********* ********* ********* ********* ********* ********* ********* *********
.FUNC R101(I) {427.6m*ASINH(I/0.7734)+67.40m*I}
.FUNC I101(V) {1.137u*(EXP(V/0.1518/EXP((TEMP-T0)/-806.5))-1)*
+              EXP((TEMP-T0)/71.50*EXP((TEMP-T0)/-274.3))-1E-120*(EXP(-V/5)-1)}
V101   3 101 0
E101 101 102 VALUE={R101(I(V101))}
V102 102 103 0
C101 103   1 1p
G101 102   1 VALUE={MIN(MAX(I101(V(102,1)),-100),100)+I(V102)*(615.8*(MAX(V(102,1),0.8976)-0.8976)+
+                   755.3*(1-686.6*TANH(MIN(V(102,1),0.8976)/686.6)/1.795)**-0.5129)}
R101 102   1 1T
.ENDS SCT2160KE_LT
* SCT2280KE_LT
* SiC NMOSFET model
* 1200V 14A 280mohm
* Model Generated by ROHM
* All Rights Reserved
* Commercial Use or Resale Restricted
* Date: 2018/07/11
*********************D G S
.SUBCKT SCT2280KE_LT 1 2 3
.PARAM T0=25
.FUNC R1(I)   {113.2m*I*EXP((TEMP-T0)/105.9*EXP((TEMP-T0)/-1037))+
+              84.37u*I*ABS(I)**2.275*EXP((TEMP-T0)/88.87)}
.FUNC V1(I)   {496.5m*ASINH(I/0.2396)*EXP((TEMP-T0)/-1005)+174.1m*I*EXP((TEMP-T0)/330.0)}
.FUNC V2(V)   {1.193u*V**(7.449*EXP((TEMP-T0)/-2058))*EXP((TEMP-T0)/34.66*EXP((TEMP-T0)/-855.5))}
.FUNC I1(V,W) {V*(1+(0.1232+0.6118*TANH(V/13.08))*EXP((TEMP-T0)/-271.7))*
+              W/(ABS(W)+(1.232+6.118*TANH(V/13.08))*EXP((TEMP-T0)/-271.7))}
V1  1 11 0
E1 11 12 VALUE={R1(I(V1))}
R1  2 22 19.5
L1  3 32 5.534n
R2  3 32 10
E6 41  0 VALUE={MIN(MAX(V(22,32),0),22)}
V6 41 42 0
E7 42 43 VALUE={V1(I(V6))}
G6 43  0 VALUE={MIN(MAX(V2(MAX(V(43),0)),-100),100)}
C6 43  0 1p
R6 43  0 1T
G1 12 32 VALUE={MIN(MAX(I1(MAX(I(V6),0),V(12,32)),-50),50)}
C7 12 32 1p
R7 12 32 1T
V2 22 23 0
C1 23 12 1p
G2 22 12 VALUE={I(V2)*(992.3*(MIN(MAX(V(22,12),0.6059),0.830)-0.6059)+
+               609.2*(1-262.4*TANH(MIN(V(22,12),0.6059)/262.4)/1.212)**-0.6353)*
+              (0.4033*TANH((V(22,12)+1.546)*1.413)+0.5967)}
C2 22 32 662p
R3 22  3 1G
********* ********* ********* ********* ********* ********* ********* ********* ********* ********* *********
.FUNC R101(I) {473.4m*ASINH(I/0.5907)+93.72m*I}
.FUNC I101(V) {736.6n*(EXP(V/0.1604/EXP((TEMP-T0)/-815.2))-1)*EXP((TEMP-T0)/65.87*EXP((TEMP-T0)/-293.4))-
+              1E-120*(EXP(-V/5)-1)}
V101   3 101 0
E101 101 102 VALUE={R101(I(V101))}
V102 102 103 0
C101 103   1 1p
G101 102   1 VALUE={MIN(MAX(I101(V(102,1)),-50),50)+I(V102)*(318.9*(MAX(V(102,1),0.9432)-0.9432)+
+                   411.7*(1-658.3*TANH(MIN(V(102,1),0.9432)/658.3)/1.886)**-0.5122)}
R101 102   1 1T
.ENDS SCT2280KE_LT
* SCT2450KE_LT
* SiC NMOSFET model
* 1200V 10A 450mohm
* Model Generated by ROHM
* All Rights Reserved
* Commercial Use or Resale Restricted
* Date: 2018/07/11
*********************D G S
.SUBCKT SCT2450KE_LT 1 2 3
.PARAM T0=25
.FUNC R1(I)   {78.28m*I*EXP((TEMP-T0)/88.43)+185.6u*I*ABS(I)**2.507*EXP((TEMP-T0)/81.66)}
.FUNC V1(I)   {446.8m*ASINH(I/0.1369)*EXP((TEMP-T0)/-1040)+362.8m*I*EXP((TEMP-T0)/459.7)}
.FUNC V2(V)   {241.0n*V**(7.878*EXP((TEMP-T0)/-1642))*EXP((TEMP-T0)/30.91*EXP((TEMP-T0)/-775.6))}
.FUNC I1(V,W) {V*(1+0.8700*(1+TANH((V-12.55)/8.801))*EXP((TEMP-T0)/957.3))*
+              W/(ABS(W)+8.700*(1+TANH((V-12.55)/8.801))*EXP((TEMP-T0)/957.3))}
V1  1 11 0
E1 11 12 VALUE={R1(I(V1))}
R1  2 22 21.5
L1  3 32 6.504n
R2  3 32 10
E6 41  0 VALUE={MIN(MAX(V(22,32),0),22)}
V6 41 42 0
E7 42 43 VALUE={V1(I(V6))}
G6 43  0 VALUE={MIN(MAX(V2(MAX(V(43),0)),-100),100)}
C6 43  0 1p
R6 43  0 1T
G1 12 32 VALUE={MIN(MAX(I1(MAX(I(V6),0),V(12,32)),-50),50)}
C7 12 32 1p
R7 12 32 1T
V2 22 23 0
C1 23 12 1p
G2 22 12 VALUE={I(V2)*(634.5*(MIN(MAX(V(22,12),0.5616),1.118)-0.5616)+
+               391.9*(1-321.3*TANH(MIN(V(22,12),0.5616)/321.3)/1.123)**-0.5999)*
+              (0.3958*TANH((V(22,12)+1.540)*1.490)+0.6042)}
C2 22 32 459p
R3 22  3 1G
********* ********* ********* ********* ********* ********* ********* ********* ********* ********* *********
.FUNC R101(I) {540.4m*ASINH(I/0.5123)+125.7m*I}
.FUNC I101(V) {385.8n*(EXP(V/0.1640/EXP((TEMP-T0)/-826.2))-1)*EXP((TEMP-T0)/63.74*EXP((TEMP-T0)/-257.9))-
+              1E-120*(EXP(-V/5)-1)}
V101   3 101 0
E101 101 102 VALUE={R101(I(V101))}
V102 102 103 0
C101 103   1 1p
G101 102   1 VALUE={MIN(MAX(I101(V(102,1)),-50),50)+I(V102)*(223.1*(MAX(V(102,1),0.9679)-0.9679)+
+                   298.3*(1-661.7*TANH(MIN(V(102,1),0.9679)/661.7)/1.936)**-0.5087)}
R101 102   1 1T
.ENDS SCT2450KE_LT
* SCT2750NY_LT
* SiC NMOSFET model
* 1700V 6A 750mOhm
* Model Generated by ROHM
* All Rights Reserved
* Commercial Use or Resale Restricted
* Date: 2018/07/13
*********************D G S
.SUBCKT SCT2750NY_LT 1 2 3
.PARAM T0=25
.FUNC R1(I)     {501.4m*I*EXP((TEMP-T0)/150.3)+3.743m*I*ABS(I)**2.184*EXP((TEMP-T0)/153.1)}
.FUNC V1(I)     {429.1m*ASINH(I/0.09910)*EXP((TEMP-T0)/-1029)+507.3m*I*EXP((TEMP-T0)/441.8)}
.FUNC V2(V)     {249.5n*V**(7.706*EXP((TEMP-T0)/-2240))*EXP((TEMP-T0)/36.26*EXP((TEMP-T0)/-1427))}
.FUNC V3(V)     {5.808*SINH(V/5.808)*EXP((TEMP-T0)/5240)}
.FUNC I1(V,W)   {V3(V)*(1+2.987*(TANH((V3(V)-3.018)/6.502)+1)*EXP((TEMP-T0)/-222.1)/10)*
+                W/(ABS(W)+2.987*(TANH((V3(V)-3.018)/6.502)+1)*EXP((TEMP-T0)/-222.1))}
.FUNC C1(U,V,W) {(128.0*V+255.2*(1-W/1.696)**-0.8509)*(0.3413*TANH((U+1.527)*1.907)+0.6587)+5.598}
V1  1 11 0
E1 11 12 VALUE={R1(I(V1))}
R1  2 22 79
L1  3 32 5.699n
R2  3 32 10
E6 41  0 VALUE={MIN(MAX(V(22,32),0),22)}
V6 41 42 0
E7 42 43 VALUE={V1(I(V6))}
G6 43  0 VALUE={MIN(MAX(V2(MAX(V(43),0)),-50),50)}
C6 43  0 1p
R6 43  0 1T
G1 12 32 VALUE={MIN(MAX(I1(MAX(I(V6),0),V(12,32)),-25),25)}
C7 12 32 1p
R3 12 32 1T
V2 22 23 0
C1 23 12 1p
G2 22 12 VALUE={I(V2)*C1(V(22,12),MIN(MAX(V(22,12),0),0),MIN(V(22,12),0))}
C2 22 32 269.6p 
R4 22  3 1G
********* ********* ********* ********* ********* ********* ********* ********* ********* ********* *********
.FUNC R11(I)   {681.2m*ASINH(I/0.2661)*EXP((TEMP-T0)/1255)+603.9m*I*EXP((TEMP-T0)/-364.5*EXP((TEMP-T0)/-600))}
.FUNC I11(V)   {100.0n*(EXP(V/0.1469/EXP((TEMP-T0)/-470.1))-1)*EXP((TEMP-T0)/180.3)-
+               6.055E-42*(EXP(-V/25)-1)*EXP((TEMP-T0)/-200)}
.FUNC C11(V,W) {108.2*(V-1.103)+132.3*(1-W/2.206)**-0.5968+6.733}
V11 32 51 0
E11 51 52 VALUE={R11(I(V11))}
V12 52 53 0
C11 53  1 1p
G11 52  1 VALUE={MIN(MAX(I11(V(52,1)),-25),25)+I(V12)*C11(MAX(V(52,1),1.103),MIN(V(52,1),1.103))}
R11 52  1 1T
.ENDS SCT2750NY_LT
* SCT2H12NY_LT
* SiC NMOSFET model
* 1700V 4A 1.15ohm
* Model Generated by ROHM
* All Rights Reserved
* Commercial Use or Resale Restricted
* Date: 2018/07/13
*********************D G S
.SUBCKT SCT2H12NY_LT 1 2 3
.PARAM T0=25
.FUNC R1(I)     {747.1m*I*EXP((TEMP-T0)/110.1*EXP((TEMP-T0)/-538.9))+
+                12.88m*I*ABS(I)**2.230*exp((TEMP-T0)/336.6*EXP((TEMP-T0)/195.0))}
.FUNC V1(I)     {411.4m*ASINH(I/0.06865)*EXP((TEMP-T0)/-1671)+784.8m*I*EXP((TEMP-T0)/468.7)}
.FUNC V2(V)     {199.3n*V**(7.534*EXP((TEMP-T0)/-4104))*EXP((TEMP-T0)/42.64*EXP((TEMP-T0)/-1942))}
.FUNC V3(V)     {3.866*SINH(V/3.866)}
.FUNC I1(V,W)   {V3(V)*(1+2.875*(TANH((V3(V)-1.279)/4.722)+1)*EXP((TEMP-T0)/-80.78)/10)*
+                W/(ABS(W)+2.875*(TANH((V3(V)-1.279)/4.722)+1)*EXP((TEMP-T0)/-80.78))}
.FUNC C1(U,V,W) {(80.90*V+168.1*(1-W/1.788)**-0.8606)*(0.3406*TANH((U+1.513)*1.887)+0.6594)+5.012}
V1  1 11 0
E1 11 12 VALUE={R1(I(V1))}
R1  2 22 135
L1  3 32 5.699n
R2  3 32 10
E6 41  0 VALUE={MIN(MAX(V(22,32),0),22)}
V6 41 42 0
E7 42 43 VALUE={V1(I(V6))}
G6 43  0 VALUE={MIN(MAX(V2(MAX(V(43),0)),-30),30)}
C6 43  0 1p
R6 43  0 1T
G1 12 32 VALUE={MIN(MAX(I1(MAX(I(V6),0),V(12,32)),-15),15)}
C7 12 32 1p
R3 12 32 1T
V2 22 23 0
C1 23 12 1p
G2 22 12 VALUE={I(V2)*C1(V(22,12),MIN(MAX(V(22,12),0),0),MIN(V(22,12),0))}
C2 22 32 179.0p
R4 22  3 1G
********* ********* ********* ********* ********* ********* ********* ********* ********* ********* *********
.FUNC R11(I)   {1.011*ASINH(I/0.3273)*EXP((TEMP-T0)/937.4)+520.6m*I*EXP((TEMP-T0)/-165.1*EXP((TEMP-T0)/-300))}
.FUNC I11(V)   {100n*(EXP(V/0.1596/EXP((TEMP-T0)/-508.7))-1)*EXP((TEMP-T0)/180.3)-
+               6.055E-42*(EXP(-V/25)-1)*EXP((TEMP-T0)/-200)}
.FUNC C11(V,W) {76.02*(V-1.080)+92.74*(1-W/2.160)**-0.5887+5.632}
V11 32 51 0
E11 51 52 VALUE={R11(I(V11))}
V12 52 53 0
C11 53  1 1p
G11 52  1 VALUE={MIN(MAX(I11(V(52,1)),-15),15)+I(V12)*C11(MAX(V(52,1),1.080),MIN(V(52,1),1.080))}
R11 52  1 1T
.ENDS SCT2H12NY_LT
* SCT2H12NZ_LT
* SiC NMOSFET model
* 1700V 3.7A 1.15ohm
* Model Generated by ROHM
* All Rights Reserved
* Commercial Use or Resale Restricted
* Date: 2018/07/13
*********************D G S
.SUBCKT SCT2H12NZ_LT 1 2 3
.PARAM T0=25
.FUNC R1(I)     {747.1m*I*EXP((TEMP-T0)/110.1*EXP((TEMP-T0)/-538.9))+
+                12.88m*I*ABS(I)**2.230*exp((TEMP-T0)/336.6*EXP((TEMP-T0)/195.0))}
.FUNC V1(I)     {411.4m*ASINH(I/0.06865)*EXP((TEMP-T0)/-1671)+784.8m*I*EXP((TEMP-T0)/468.7)}
.FUNC V2(V)     {199.3n*V**(7.534*EXP((TEMP-T0)/-4104))*EXP((TEMP-T0)/42.64*EXP((TEMP-T0)/-1942))}
.FUNC V3(V)     {3.866*SINH(V/3.866)}
.FUNC I1(V,W)   {V3(V)*(1+2.875*(TANH((V3(V)-1.279)/4.722)+1)*EXP((TEMP-T0)/-80.78)/10)*
+                W/(ABS(W)+2.875*(TANH((V3(V)-1.279)/4.722)+1)*EXP((TEMP-T0)/-80.78))}
.FUNC C1(U,V,W) {(80.90*V+168.1*(1-W/1.788)**-0.8606)*(0.3406*TANH((U+1.513)*1.887)+0.6594)+5.012}
V1  1 11 0
E1 11 12 VALUE={R1(I(V1))}
R1  2 22 135
L1  3 32 5.699n
R2  3 32 10
E6 41  0 VALUE={MIN(MAX(V(22,32),0),22)}
V6 41 42 0
E7 42 43 VALUE={V1(I(V6))}
G6 43  0 VALUE={MIN(MAX(V2(MAX(V(43),0)),-30),30)}
C6 43  0 1p
R6 43  0 1T
G1 12 32 VALUE={MIN(MAX(I1(MAX(I(V6),0),V(12,32)),-15),15)}
C7 12 32 1p
R3 12 32 1T
V2 22 23 0
C1 23 12 1p
G2 22 12 VALUE={I(V2)*C1(V(22,12),MIN(MAX(V(22,12),0),0),MIN(V(22,12),0))}
C2 22 32 179.0p
R4 22  3 1G
********* ********* ********* ********* ********* ********* ********* ********* ********* ********* *********
.FUNC R11(I)   {1.011*ASINH(I/0.3273)*EXP((TEMP-T0)/937.4)+520.6m*I*EXP((TEMP-T0)/-165.1*EXP((TEMP-T0)/-300))}
.FUNC I11(V)   {100n*(EXP(V/0.1596/EXP((TEMP-T0)/-508.7))-1)*EXP((TEMP-T0)/180.3)-
+               6.055E-42*(EXP(-V/25)-1)*EXP((TEMP-T0)/-200)}
.FUNC C11(V,W) {76.02*(V-1.080)+92.74*(1-W/2.160)**-0.5887+5.632}
V11 32 51 0
E11 51 52 VALUE={R11(I(V11))}
V12 52 53 0
C11 53  1 1p
G11 52  1 VALUE={MIN(MAX(I11(V(52,1)),-15),15)+I(V12)*C11(MAX(V(52,1),1.080),MIN(V(52,1),1.080))}
R11 52  1 1T
.ENDS SCT2H12NZ_LT
* SCT3017AL_LT
* SiC NMOSFET model
* 650V 118A 17mOhm
* Model Generated by ROHM
* All Rights Reserved
* Commercial Use or Resale Restricted
* Date: 2018/07/02
*********************D G S
.SUBCKT SCT3017AL_LT 1 2 3
.PARAM T0=25
.FUNC R1(I)     {13.00m*I*EXP((TEMP-T0)/248.5)+34.86u*I*ABS(I)**0.906*EXP((TEMP-T0)/-498.2)}
.FUNC R2(I)     {I*(1.0*(1+TANH(I))/2+1.8*(1-TANH(I))/2)}
.FUNC V1(I)     {685.5m*ASINH(I/7.039)*EXP((TEMP-T0)/-729.5)+
+                131.1m*ASINH(I/0.1611)*EXP((TEMP-T0)/-284.4)+10.88m*I*EXP((TEMP-T0)/324.5)}
.FUNC V2(V)     {35.76p*V**(13.71*EXP((TEMP-T0)/-3762))*EXP((TEMP-T0)/30.88*EXP((TEMP-T0)/-1286))}
.FUNC V3(V)     {206.6*SINH(V/206.6)}
.FUNC I1(V,W)   {V3(V)*(1+2.255*(TANH((V3(V)-62.86)/108.2)+1)*EXP((TEMP-T0)/-131.6*EXP((TEMP-T0)/-284.1))/10)*
+                W/(ABS(W)+2.255*(TANH((V3(V)-62.86)/108.2)+1)*EXP((TEMP-T0)/-131.6*EXP((TEMP-T0)/-284.1)))}
.FUNC C1(U,V,W) {(1095*V+2507*(1-W/1.010)**-0.4410)*(0.1716*TANH((U+7.679)/2.791)+0.8284)}
V1  1 11 0
E1 11 12 VALUE={R1(I(V1))}
V2  2 21 0
E2 21 22 VALUE={R2(I(V2))}
L1  3 32 4.1n
R2  3 32 10
E6 41  0 VALUE={MIN(MAX(V(22,32),0),22)}
V6 41 42 0
E7 42 43 VALUE={V1(I(V6))}
G6 43  0 VALUE={MIN(MAX(V2(MAX(V(43),0)),-1k),1k)}
C6 43  0 1p
R6 43  0 1T
G1 12 32 VALUE={MIN(MAX(I1(MAX(I(V6),0),V(12,32)),-500),500)}
C7 12 32 1p
R3 12 32 1T
V3 22 23 0
C1 23 12 1p
G2 22 12 VALUE={I(V3)*C1(V(22,12),MIN(MAX(V(22,12),0),0.225),MIN(V(22,12),0))}
C2 22 32 2.788n
R4 22  3 1G
********* ********* ********* ********* ********* ********* ********* ********* ********* ********* *********
.FUNC R11(I)   {118.4m*ASINH(I/0.3724)*EXP((TEMP-T0)/-4956)+19.34m*I*EXP((TEMP-T0)/466.6)}
.FUNC I11(V)   {381.4p*(EXP(V/0.06900/EXP((TEMP-T0)/-519.2))-1)*EXP((TEMP-T0)/190.6*EXP((TEMP-T0)/-251.5))-
+               1u*TANH(-V/0.1)*EXP((TEMP-T0)/180.3)-231.9E-21*(EXP(-V/25)-1)*EXP((TEMP-T0)/-200)}
.FUNC C11(V,W) {1321*(V-0.9507)+1882*(1-W/1.901)**-0.4789}
V11 32 51 0
E11 51 52 VALUE={R11(I(V11))}
V12 52 53 0
C11 53  1 1p
G11 52  1 VALUE={MIN(MAX(I11(V(52,1)),-500),500)+I(V12)*C11(MAX(V(52,1),0.9507),MIN(V(52,1),0.9507))}
R11 52  1 1T
.ENDS SCT3017AL_LT
* SCT3022AL_LT
* SiC NMOSFET model
* 650V 93A 22mOhm
* Model Generated by ROHM
* All Rights Reserved
* Commercial Use or Resale Restricted
* Date: 2018/07/02
*********************D G S
.SUBCKT SCT3022AL_LT 1 2 3
.PARAM T0=25
.FUNC R1(I)     {15.89m*I*EXP((TEMP-T0)/255.5)+1.274u*I*ABS(I)**1.575*EXP((TEMP-T0)/-2495)}
.FUNC R2(I)     {I*(1.0*(1+TANH(I))/2+6.6*(1-TANH(I))/2)}
.FUNC V1(I)     {738.2m*ASINH(I/5.716)*EXP((TEMP-T0)/-1443)+
+                204.0m*ASINH(I/0.1115)*EXP((TEMP-T0)/-312.9)+13.55m*I*EXP((TEMP-T0)/378.6)}
.FUNC V2(V)     {421.3f*V**(16.59*EXP((TEMP-T0)/-5120))*EXP((TEMP-T0)/26.92*EXP((TEMP-T0)/-1531))}
.FUNC V3(V)     {225.3*SINH(V/225.3)*EXP((TEMP-T0)/12585)}
.FUNC I1(V,W)   {V3(V)*(1+2.078*(TANH((V3(V)-40.08)/78.25)+1)*EXP((TEMP-T0)/-155.8*EXP((TEMP-T0)/-326.5))/10)*
+                W/(ABS(W)+2.078*(TANH((V3(V)-40.08)/78.25)+1)*EXP((TEMP-T0)/-155.8*EXP((TEMP-T0)/-326.5)))}
.FUNC C1(U,V,W) {(1028*V+1971*(1-W/0.8431)**-0.4397)*(0.2108*TANH((U+7.666)/3.268)+0.7892)}
V1  1 11 0
E1 11 12 VALUE={R1(I(V1))}
V2  2 21 0
E2 21 22 VALUE={R2(I(V2))}
L1  3 32 4.5n
R2  3 32 10
E6 41  0 VALUE={MIN(MAX(V(22,32),0),22)}
V6 41 42 0
E7 42 43 VALUE={V1(I(V6))}
G6 43  0 VALUE={MIN(MAX(V2(MAX(V(43),0)),-1k),1k)}
C6 43  0 1p
R6 43  0 1T
G1 12 32 VALUE={MIN(MAX(I1(MAX(I(V6),0),V(12,32)),-500),500)}
C7 12 32 1p
R3 12 32 1T
V3 22 23 0
C1 23 12 1p
G2 22 12 VALUE={I(V3)*C1(V(22,12),MIN(MAX(V(22,12),0),0.593),MIN(V(22,12),0))}
C2 22 32 2.183n
R4 22  3 1G
********* ********* ********* ********* ********* ********* ********* ********* ********* ********* *********
.FUNC R11(I)   {79.18m*ASINH(I/0.5202)*EXP((TEMP-T0)/217.9)+22.43m*I*EXP((TEMP-T0)/599.6)}
.FUNC I11(V)   {30.71n*(EXP(V/0.09265/EXP((TEMP-T0)/-302.0))-1)*EXP((TEMP-T0)/-65.69*EXP((TEMP-T0)/-842.5))-
+               1u*TANH(-V/0.1)*EXP((TEMP-T0)/180.3)-231.9E-21*(EXP(-V/25)-1)*EXP((TEMP-T0)/-200)}
.FUNC C11(V,W) {1650*(V-0.8682)+1966*(1-W/1.736)**-0.5112}
V11 32 51 0
E11 51 52 VALUE={R11(I(V11))}
V12 52 53 0
C11 53  1 1p
G11 52  1 VALUE={MIN(MAX(I11(V(52,1)),-500),500)+I(V12)*C11(MAX(V(52,1),0.8682),MIN(V(52,1),0.8682))}
R11 52  1 1T
.ENDS SCT3022AL_LT
* SCT3022KL_LT
* SiC NMOSFET model
* 1200V 95A 22mOhm
* Model Generated by ROHM
* All Rights Reserved
* Commercial Use or Resale Restricted
* Date: 2018/07/02
*********************D G S
.SUBCKT SCT3022KL_LT 1 2 3
.PARAM T0=25
.FUNC R1(I)     {14.94m*I*EXP((TEMP-T0)/157.8)+102.4n*I*ABS(I)**1.791*EXP((TEMP-T0)/84.52)}
.FUNC R2(I)     {I*(1.0*(1+TANH(I))/2+2.5*(1-TANH(I))/2)}
.FUNC V1(I)     {701.1m*ASINH(I/5.850)*EXP((TEMP-T0)/-1908)+
+                196.8m*ASINH(I/0.1236)*EXP((TEMP-T0)/-279.1)+14.19m*I*EXP((TEMP-T0)/558.3)}
.FUNC V2(V)     {48.17f*V**17.32*EXP((TEMP-T0)/31.12*EXP((TEMP-T0)/-1474))}
.FUNC I1(V,W)   {V*(1+1.759*(TANH((V-25.20)/59.58)+1)*EXP((TEMP-T0)/-218.3)/10)*
+                W/(ABS(W)+1.759*(TANH((V-25.20)/59.58)+1)*EXP((TEMP-T0)/-218.3))*EXP((TEMP-T0)/3113)}
.FUNC C1(U,V,W) {(940.1*V+2739*(1-425.8*TANH(W/425.8)/1.696)**-0.5822)*(1+(TANH((U+8.245)/4.522)-1)/4.587)}
V1  1 11 0
E1 11 12 VALUE={R1(I(V1))}
V2  2 21 0
E2 21 22 VALUE={R2(I(V2))}
L1  3 32 5.0n
R2  3 32 10
E6 41  0 VALUE={MIN(MAX(V(22,32),0),22)}
V6 41 42 0
E7 42 43 VALUE={V1(I(V6))}
G6 43  0 VALUE={MIN(MAX(V2(MAX(V(43),0)),-1k),1k)}
C6 43  0 1p
R6 43  0 1T
G1 12 32 VALUE={MIN(MAX(I1(MAX(I(V6),0),V(12,32)),-500),500)}
C7 12 32 1p
R3 12 32 1T
V3 22 23 0
C1 23 12 1p
G2 22 12 VALUE={I(V3)*C1(V(22,12),MIN(MAX(V(22,12),0),0.172),MIN(V(22,12),0))}
C2 22 32 2.788n
R4 22  3 1G
********* ********* ********* ********* ********* ********* ********* ********* ********* ********* *********
.FUNC R11(I)   {80.66m*ASINH(I/0.5692)*EXP((TEMP-T0)/215.4)+23.87m*I*EXP((TEMP-T0)/341.7)}
.FUNC I11(V)   {14.95n*(EXP(V/0.08962/EXP((TEMP-T0)/-279.8))-1)*EXP((TEMP-T0)/-47.91*EXP((TEMP-T0)/808.9))-
+               1u*TANH(-V/0.1)*EXP((TEMP-T0)/180.3)-8.756E-30*(EXP(-V/25)-1)*EXP((TEMP-T0)/-200)}
.FUNC C11(V,W) {1912*(V-1.336)+2533*(1-587.2*TANH(W/587.2)/2.672)**-0.6451}
V11 32 51 0
E11 51 52 VALUE={R11(I(V11))}
V12 52 53 0
C11 53  1 1p
G11 52  1 VALUE={MIN(MAX(I11(V(52,1)),-500),500)+I(V12)*C11(MAX(V(52,1),1.336),MIN(V(52,1),1.336))}
R11 52  1 1T
.ENDS SCT3022KL_LT
* SCT3030AL_LT
* SiC NMOSFET model
* 650V 70A 30mOhm
* Model Generated by ROHM
* All Rights Reserved
* Commercial Use or Resale Restricted
* Date: 2018/07/02
*********************D G S
.SUBCKT SCT3030AL_LT 1 2 3
.PARAM T0=25
.FUNC R1(I)     {17.94m*I*EXP((TEMP-T0)/196.8)+1.914u*I*ABS(I)**1.526*EXP((TEMP-T0)/950.4)}
.FUNC R2(I)     {I*(1.0*(1+TANH(I))/2+5.8*(1-TANH(I))/2)}
.FUNC V1(I)     {195.0m*ASINH(I/0.1194)*EXP((TEMP-T0)/-344.4)+
+                718.5m*ASINH(I/4.314)*EXP((TEMP-T0)/-1992)+19.42m*I*EXP((TEMP-T0)/390.9)}
.FUNC V2(V)     {2.284p*V**15.14*EXP((TEMP-T0)/33.20*EXP((TEMP-T0)/-1781))}
.FUNC V3(V)     {884.0*SINH(V/884.0)*EXP((TEMP-T0)/4418)}
.FUNC I1(V,W)   {V3(V)*(1+2.227*(TANH((V3(V)-26.11)/42.99)+1)*EXP((TEMP-T0)/-179.1)/10)*
+                W/(ABS(W)+2.227*(TANH((V3(V)-26.11)/42.99)+1)*EXP((TEMP-T0)/-179.1))}
.FUNC C1(U,V,W) {(582.4*V+1473*(1-W/1.117)**-0.4415)*(0.1835*TANH((U+7.522)/3.213)+0.8165)}
V1  1 11 0
E1 11 12 VALUE={R1(I(V1))}
V2  2 21 0
E2 21 22 VALUE={R2(I(V2))}
L1  3 32 5.0n
R2  3 32 10
E6 41  0 VALUE={MIN(MAX(V(22,32),0),22)}
V6 41 42 0
E7 42 43 VALUE={V1(I(V6))}
G6 43  0 VALUE={MIN(MAX(V2(MAX(V(43),0)),-500),500)}
C6 43  0 1p
R6 43  0 1T
G1 12 32 VALUE={MIN(MAX(I1(MIN(MAX(I(V6),0),2k),V(12,32)),-300),300)}
C7 12 32 1p
R3 12 32 1T
V3 22 23 0
C1 23 12 1p
G2 22 12 VALUE={I(V3)*C1(V(22,12),MIN(MAX(V(22,12),0),0.803),MIN(V(22,12),0))}
C2 22 32 1.490n
R4 22  3 1G
********* ********* ********* ********* ********* ********* ********* ********* ********* ********* *********
.FUNC R11(I)   {90.84m*ASINH(I/0.4303)*EXP((TEMP-T0)/268.3)+34.43m*I*EXP((TEMP-T0)/742.5)}
.FUNC I11(V)   {38.98n*(EXP(V/0.09615/EXP((TEMP-T0)/-277.8))-1)*EXP((TEMP-T0)/-52.29*EXP((TEMP-T0)/800.0))-
+               1u*TANH(-V/0.1)*EXP((TEMP-T0)/180.3)-231.9E-21*(EXP(-V/25)-1)*EXP((TEMP-T0)/-200)}
.FUNC C11(V,W) {722.2*(V-1.083)+1110*(1-W/2.167)**-0.4987}
V11 32 51 0
E11 51 52 VALUE={R11(I(V11))}
V12 52 53 0
C11 53  1 1p
G11 52  1 VALUE={MIN(MAX(I11(V(52,1)),-300),300)+I(V12)*C11(MAX(V(52,1),1.083),MIN(V(52,1),1.083))}
R11 52  1 1T
.ENDS SCT3030AL_LT
* SCT3030KL_LT
* SiC NMOSFET model
* 1200V 72A 30mOhm
* Model Generated by ROHM
* All Rights Reserved
* Commercial Use or Resale Restricted
* Date: 2018/07/02
*********************D G S
.SUBCKT SCT3030KL_LT 1 2 3
.PARAM T0=25
.FUNC R1(I)     {23.56m*I*EXP((TEMP-T0)/170.9)+560.3n*I*ABS(I)**1.874*EXP((TEMP-T0)/235.9)}
.FUNC R2(I)     {I*(1.0*(1+TANH(I))/2+3.5*(1-TANH(I))/2)}
.FUNC V1(I)     {205.6m*ASINH(I/0.1074)*EXP((TEMP-T0)/-323.3)+
+                695.9m*ASINH(I/4.504)*EXP((TEMP-T0)/-1671)+20.22m*I*EXP((TEMP-T0)/532.2)}
.FUNC V2(V)     {189.2f*V**16.68*EXP((TEMP-T0)/30.24*EXP((TEMP-T0)/-1549))}
.FUNC V3(V)     {179.3*SINH(V/179.3)*EXP((TEMP-T0)/8816)}
.FUNC I1(V,W)   {V3(V)*(1+2.014*(TANH((V3(V)-38.27)/73.64)+1)*EXP((TEMP-T0)/-182.3)/10)*
+                W/(ABS(W)+2.014*(TANH((V3(V)-38.27)/73.64)+1)*EXP((TEMP-T0)/-182.3))}
.FUNC C1(U,V,W) {(358.4*V+1764*(1-492.9*TANH(W/492.9)/1.638)**-0.4999)*(1+(TANH((U+7.189)/4.803)-1)/3.877)}
V1  1 11 0
E1 11 12 VALUE={R1(I(V1))}
V2  2 21 0
E2 21 22 VALUE={R2(I(V2))}
L1  3 32 7.0n
R2  3 32 10
E6 41  0 VALUE={MIN(MAX(V(22,32),0),22)}
V6 41 42 0
E7 42 43 VALUE={V1(I(V6))}
G6 43  0 VALUE={MIN(MAX(V2(MAX(V(43),0)),-500),500)}
C6 43  0 1p
R6 43  0 1T
G1 12 32 VALUE={MIN(MAX(I1(MAX(I(V6),0),V(12,32)),-300),300)}
C7 12 32 1p
R3 12 32 1T
V3 22 23 0
C1 23 12 1p
G2 22 12 VALUE={I(V3)*C1(V(22,12),MIN(MAX(V(22,12),0),0.393),MIN(V(22,12),0))}
C2 22 32 2.208n
R4 22  3 1G
********* ********* ********* ********* ********* ********* ********* ********* ********* ********* *********
.FUNC R11(I)   {111.0m*ASINH(I/0.7658)*EXP((TEMP-T0)/214.2)+33.58m*I*EXP((TEMP-T0)/541.9)}
.FUNC I11(V)   {60.41n*(EXP(V/0.09918/EXP((TEMP-T0)/-320.4))-1)*EXP((TEMP-T0)/-84.72*EXP((TEMP-T0)/854.1))-
+               1u*TANH(-V/0.1)*EXP((TEMP-T0)/180.3)-8.756E-30*(EXP(-V/25)-1)*EXP((TEMP-T0)/-200)}
.FUNC C11(V,W) {1117*(V-1.410)+1584*(1-440.6*TANH(W/440.6)/2.820)**-0.6386}
V11 32 51 0
E11 51 52 VALUE={R11(I(V11))}
V12 52 53 0
C11 53  1 1p
G11 52  1 VALUE={MIN(MAX(I11(V(52,1)),-300),300)+I(V12)*C11(MAX(V(52,1),1.410),MIN(V(52,1),1.410))}
R11 52  1 1T
.ENDS SCT3030KL_LT
* SCT3040KL_LT
* SiC NMOSFET model
* 1200V 55A 40mOhm
* Model Generated by ROHM
* All Rights Reserved
* Commercial Use or Resale Restricted
* Date: 2018/07/02
*********************D G S
.SUBCKT SCT3040KL_LT 1 2 3
.PARAM T0=25
.FUNC R1(I)     {30.33m*I*EXP((TEMP-T0)/166.5)+4.822u*I*ABS(I)**1.596*EXP((TEMP-T0)/892.6)}
.FUNC R2(I)     {I*(1.3*(1+TANH(I))/2+3.7*(1-TANH(I))/2)}
.FUNC V1(I)     {139.4m*ASINH(I/0.1277)*EXP((TEMP-T0)/-409.0)+
+                559.5m*ASINH(I/3.997)*EXP((TEMP-T0)/-1244)+25.41m*I*EXP((TEMP-T0)/498.5)}
.FUNC V2(V)     {21.45p*V**13.56*EXP((TEMP-T0)/38.52*EXP((TEMP-T0)/-1793))}
.FUNC V3(V)     {94.67*SINH(V/94.67)*EXP((TEMP-T0)/11811)}
.FUNC I1(V,W)   {V3(V)*(1+3.258*(TANH((V3(V)-66.90)/113.2)+1)*EXP((TEMP-T0)/-174.1)/10)*
+                W/(ABS(W)+3.258*(TANH((V3(V)-66.90)/113.2)+1)*EXP((TEMP-T0)/-174.1))}
.FUNC C1(U,V,W) {(559.5*V+1446*(1-576.3*TANH(W/576.3)/1.345)**-0.5204)*(1+(TANH((U+8.327)/3.706)-1)/5.183)}
V1  1 11 0
E1 11 12 VALUE={R1(I(V1))}
V2  2 21 0
E2 21 22 VALUE={R2(I(V2))}
L1  3 32 7.0n
R2  3 32 10
E6 41  0 VALUE={MIN(MAX(V(22,32),0),22)}
V6 41 42 0
E7 42 43 VALUE={V1(I(V6))}
G6 43  0 VALUE={MIN(MAX(V2(MAX(V(43),0)),-500),500)}
C6 43  0 1p
R6 43  0 1T
G1 12 32 VALUE={MIN(MAX(I1(MAX(I(V6),0),V(12,32)),-300),300)}
C7 12 32 1p
R3 12 32 1T
V3 22 23 0
C1 23 12 1p
G2 22 12 VALUE={I(V3)*C1(V(22,12),MIN(MAX(V(22,12),0),0.525),MIN(V(22,12),0))}
C2 22 32 1.531n
R4 22  3 1G
********* ********* ********* ********* ********* ********* ********* ********* ********* ********* *********