*
* Littelfuse, LP
* SIDACtor SPICE Models
* Pxxx0EB, TO-92, 30V to 350V, "B" Surge Rating
*
.opt gmin=10n Gshunt=1n
*
*
.SUBCKT SIDAC0   2 10  Rs=0.75 BV=64 
*     TERMINALS: MT2 MT2
L 1 10 20n   Rpar=1k Rser={Rs} 
d1 8 2 Dmy
d2 5 1 Dmy 
.model Dmy d is=10u Rs=100k
QN1 5 4 2  NOUT OFF
QN2 8 6 1  NOUT OFF
QP1 6 8 2  POUT OFF
QP2 4 5 1  POUT OFF
RH  1 6    30
RH2 4 2    30
.MODEL POUT PNP IS=1p  BF=10 CJE=50P  TF=0.1U  nBVcbo=3  BVcbo={BV}
.MODEL NOUT NPN IS=1p  BF=20 CJE=50P CJC=50P TF=0.1U  nBVcbo=3  BVcbo={BV} 
.ENDS
*
.SUBCKT P0300EB   10   2
X 10 2 SIDAC0  Rs=0.75 BV=30
.ENDS
*
.SUBCKT P0640EB   10   2
X 10 2 SIDAC0  Rs=0.75 BV=64
.ENDS
*
.SUBCKT P0720EB   10   2
X 10 2 SIDAC0  Rs=0.75 BV=72
.ENDS
*
.SUBCKT P0800EB   10   2
X 10 2 SIDAC0  Rs=0.75 BV=80
.ENDS
*
.SUBCKT P0900EB   10   2
X 10 2 SIDAC0  Rs=0.75 BV=90
.ENDS
*
.SUBCKT P1100EB   10   2
X 10 2 SIDAC0  Rs=0.75 BV=110
.ENDS
*
.SUBCKT P1200EB   10   2
X 10 2 SIDAC0  Rs=0.75 BV=120
.ENDS
*
.SUBCKT P1300EB   10   2
X 10 2 SIDAC0  Rs=0.75 BV=130
.ENDS
*
.SUBCKT P1500EB   10   2
X 10 2 SIDAC0  Rs=0.75 BV=150
.ENDS
*
.SUBCKT P1800EB   10   2
X 10 2 SIDAC0  Rs=0.75 BV=180
.ENDS
*
.SUBCKT P2000EB   10   2
X 10 2 SIDAC0  Rs=0.75 BV=200
.ENDS
*
.SUBCKT P2300EB   10   2
X 10 2 SIDAC0  Rs=0.75 BV=230
.ENDS
*
.SUBCKT P2500EB   10   2
X 10 2 SIDAC0  Rs=0.75 BV=250
.ENDS
*
.SUBCKT P2600EB   10   2
X 10 2 SIDAC0  Rs=0.75 BV=260
.ENDS
*
.SUBCKT P3100EB   10   2
X 10 2 SIDAC0  Rs=0.75 BV=310
.ENDS
*
.SUBCKT P3500EB   10   2
X 10 2 SIDAC0  Rs=0.75 BV=350
.ENDS
*
.SUBCKT P3150EB   10   2
X 10 2 SIDAC0  Rs=0.75 BV=315
.ENDS
*
.SUBCKT P34500EB   10   2
X 10 2 SIDAC0  Rs=0.75 BV=345
.ENDS
*