.subckt speakerpa A B Pa
Rvc1 N001 1 3
Rvc2 N002 N001 15
Rvc3 N005 N002 75
Rvc 1 A 3.8
Lvc1 1 2 4m5
Lvc2 N001 2 3m0
Lvc3 N002 2 2m0
Leb 2 3 62m Rpar=200
Cema 2 N003 0m5
Lesa 2 B 200m Rpar=90
Lesp 3 B 110m Rpar=80
Cemp 3 N004 1m5
Lvc4 N005 2 1m3
Vaa N003 B 0
Vap N004 B 0
Ba Pa 0 V= 588m*I(Vaa)-235m*I(Vap)
.ends speakerpa
