*********************************************************************
*  TOSHIBA CORPORATION SEMICONDUCTOR & STORAGE PRODUCTS COMPANY
*  Date                 : 20/09/2013
*  File name            : SSM3J133TU.lib
*  Part Number          : SSM3J133TU
*  Parameter ver.       : Ver.1
*  Simulator            : PSpice
*  Model call name      : PMOS_SSM3J133TU
*  TNOM                 : 25 degree
*********************************************************************

.SUBCKT SSM3J133TU 1 2 3
M0 1 22 3 3
+ smsmosfet
+ L = 4E-006
+ W = 0.3
+ AD = 4E-007
+ AS = 4E-007
+ PD = 0.8
+ PS = 0.8
D0 1 3
+ DDS1
D1 1 3
+ DDS2
D2 10 2
+ DGS1
D3 10 3
+ DGS2
R1 10 3 1E+009
R2 10 2 1E+009
RG 2 22 13.6
.MODEL smsmosfet PMOS
+ LEVEL = 7
+ MOBMOD = 1
+ CAPMOD = 3
+ NOIMOD = 1
+ TOX = 2E-008
+ XJ = 1.5E-007
+ NCH = 1.7E+017
+ NGATE = 0
+ RSH = 0
+ TNOM = 25
+ VTH0 = -0.68413
+ VOFF = 0
+ NFACTOR = 1.0139
+ U0 = 5895.6151
+ K1 = 0.5
+ K2 = 0
+ K3 = 80
+ K3B = 0
+ W0 = 2.5E-006
+ NLX = 1.74E-007
+ DVT0 = 2.2
+ DVT1 = 0.53
+ DVT2 = -0.032
+ DVT0W = 0
+ DVT1W = 5.3E+006
+ DVT2W = -0.032
+ DWG = 0
+ DWB = 0
+ UA = 8.1934e-09
+ UB = 5.87E-019
+ UC = -4.56E-011
+ VSAT = 30257.0759
+ A0 = 1.8778
+ AGS = 2.882
+ B0 = 0
+ B1 = 0
+ KETA = -0.047
+ A1 = 0
+ A2 = 1
+ DELTA = 0.024013
+ RDSW = 4288.89
+ PRWG = 0
+ PRWB = 0
+ WR = 1
+ CDSC = 0.00024
+ CDSCD = 0
+ CDSCB = 0
+ CIT = 0
+ ETA0 = 0.03434
+ ETAB = -0.07
+ DSUB = 0.56
+ PCLM = 0.015015
+ PDIBLC1 = 0.39
+ PDIBLC2 = 1.8318e-06
+ PDIBLCB = 0
+ DROUT = 0.56
+ PSCBE1 = 4.24E+010
+ PSCBE2 = 1E-007
+ PVAG = 0
+ ALPHA0 = 0
+ ALPHA1 = 0
+ BETA0 = 30
+ NJ = 1
+ JS = 7.872E-007
+ XPART = 0
+ CGSO = 1.5266e-09
+ CGDO = 2.1884e-11
+ CGBO = 1E-012
+ CGDL = 2.4238e-09
+ CGSL = 4.2761e-12
+ CKAPPA = 0.83045
+ CF = 1E-012
+ CLC = 1E-007
+ CLE = 0.6
+ VOFFCV = 0
+ NOFF = 1
+ DLC = 0
+ ACDE = 1
+ MOIN = 15
+ CJ = 0.00071374
+ CJSW = 1E-012
+ CJSWG = 1E-012
+ PB = 0.50565
+ PBSW = 1
+ PBSWG = 1
+ MJ = 1.084
+ MJSW = 0.33
+ MJSWG = 0.33
+ AF = 1
+ EF = 1
+ KF = 0
+ UTE = -1.7966
+ KT1 = -0.3733
+ KT1L = 0
+ KT2 = 0.022
+ UA1 = 4.31E-009
+ UB1 = -7.61E-018
+ UC1 = -5.6E-011
+ AT = 15000
+ PRT = 1000
+ XTI = 3
+ TCJ = 0
+ TPB = 0
+ TCJSW = 0
+ TPBSW = 0
+ TCJSWG = 0
+ TPBSWG = 0
+ DWC = 0.025614
.MODEL DDS1 D
+ TNOM = 25
+ IS = 3.9752e-10
+ RS = 0.31973
+ N = 1.2912
+ XTI = 3
+ CJO = 1e-15
+ VJ = 1
+ M = 0.5
+ XTI = 3
+ BV = 20
+ IBV = 0.001
.MODEL DDS2 D
+ TNOM = 25
+ IS = 3.9752e-10
+ RS = 0.31973
+ N = 1.2912
+ XTI = 3
+ CJO = 1e-15
+ VJ = 1
+ M = 0.5
+ XTI = 3
.MODEL DGS1 D
+ TNOM = 25
+ IS = 1E-015
.MODEL DGS2 D
+ TNOM = 25
+ IS = 1E-015
.ENDS


