.subckt SWeq 1 2 x=1 y=1 Rmin=1u Rmax=1T
R 1 2 R=if((x==y),Rmin,Rmax)
.ends SWeq