.subckt symmetric_line16 1 2 3 4
+ Ro=100 Len=0.5 R=45m  C=50p  G=0
.param L=Ro**2*C N=16 L1=L/N*Len*0.5  R1=R/N*Len  C1=C/N*Len  R2=N/max(0.001f,G)/Len
V1 1 A[0] 0
V2 2 B[0] 0
L1[1] A[0] A[1] {L1} Rser={R1}
L1[2] A[1] A[2] {L1} Rser={R1}
L1[3] A[2] A[3] {L1} Rser={R1}
L1[4] A[3] A[4] {L1} Rser={R1}
L1[5] A[4] A[5] {L1} Rser={R1}
L1[6] A[5] A[6] {L1} Rser={R1}
L1[7] A[6] A[7] {L1} Rser={R1}
L1[8] A[7] A[8] {L1} Rser={R1}
L1[9] A[8] A[9] {L1} Rser={R1}
L1[10] A[9] A[10] {L1} Rser={R1}
L1[11] A[10] A[11] {L1} Rser={R1}
L1[12] A[11] A[12] {L1} Rser={R1}
L1[13] A[12] A[13] {L1} Rser={R1}
L1[14] A[13] A[14] {L1} Rser={R1}
L1[15] A[14] A[15] {L1} Rser={R1}
C1[1] A[1] B[1] {C1} Rser=0 Rpar={R2}
C1[2] A[2] B[2] {C1} Rser=0 Rpar={R2}
C1[3] A[3] B[3] {C1} Rser=0 Rpar={R2}
C1[4] A[4] B[4] {C1} Rser=0 Rpar={R2}
C1[5] A[5] B[5] {C1} Rser=0 Rpar={R2}
C1[6] A[6] B[6] {C1} Rser=0 Rpar={R2}
C1[7] A[7] B[7] {C1} Rser=0 Rpar={R2}
C1[8] A[8] B[8] {C1} Rser=0 Rpar={R2}
C1[9] A[9] B[9] {C1} Rser=0 Rpar={R2}
C1[10] A[10] B[10] {C1} Rser=0 Rpar={R2}
C1[11] A[11] B[11] {C1} Rser=0 Rpar={R2}
C1[12] A[12] B[12] {C1} Rser=0 Rpar={R2}
C1[13] A[13] B[13] {C1} Rser=0 Rpar={R2}
C1[14] A[14] B[14] {C1} Rser=0 Rpar={R2}
C1[15] A[15] B[15] {C1} Rser=0 Rpar={R2}
L2[1] B[0] B[1] {L1} Rser={R1}
L2[2] B[1] B[2] {L1} Rser={R1}
L2[3] B[2] B[3] {L1} Rser={R1}
L2[4] B[3] B[4] {L1} Rser={R1}
L2[5] B[4] B[5] {L1} Rser={R1}
L2[6] B[5] B[6] {L1} Rser={R1}
L2[7] B[6] B[7] {L1} Rser={R1}
L2[8] B[7] B[8] {L1} Rser={R1}
L2[9] B[8] B[9] {L1} Rser={R1}
L2[10] B[9] B[10] {L1} Rser={R1}
L2[11] B[10] B[11] {L1} Rser={R1}
L2[12] B[11] B[12] {L1} Rser={R1}
L2[13] B[12] B[13] {L1} Rser={R1}
L2[14] B[13] B[14] {L1} Rser={R1}
L2[15] B[14] B[15] {L1} Rser={R1}
C2 A[0] B[0] {C1/2} Rser=0 Rpar={R2*2}
L1 A[15] 3 {L1} Rser={R1}
L2 B[15] 4 {L1} Rser={R1}
C1 3 4 {C1/2} Rser=0 Rpar={R2*2}
.ends symmetric_line16


.subckt symmetric_line32 1 2 3 4
+ Ro=100 Len=0.5 R=45m  C=50p  G=0
*
.param L=Ro**2*C N=32 L1=L/N*Len*0.5  R1=R/N*Len  C1=C/N*Len  R2=N/max(0.001f,G)/Len
V1 1 A[0] 0
V2 2 B[0] 0
L1[1] A[0] A[1] {L1} Rser={R1}
L1[2] A[1] A[2] {L1} Rser={R1}
L1[3] A[2] A[3] {L1} Rser={R1}
L1[4] A[3] A[4] {L1} Rser={R1}
L1[5] A[4] A[5] {L1} Rser={R1}
L1[6] A[5] A[6] {L1} Rser={R1}
L1[7] A[6] A[7] {L1} Rser={R1}
L1[8] A[7] A[8] {L1} Rser={R1}
L1[9] A[8] A[9] {L1} Rser={R1}
L1[10] A[9] A[10] {L1} Rser={R1}
L1[11] A[10] A[11] {L1} Rser={R1}
L1[12] A[11] A[12] {L1} Rser={R1}
L1[13] A[12] A[13] {L1} Rser={R1}
L1[14] A[13] A[14] {L1} Rser={R1}
L1[15] A[14] A[15] {L1} Rser={R1}
L1[16] A[15] A[16] {L1} Rser={R1}
L1[17] A[16] A[17] {L1} Rser={R1}
L1[18] A[17] A[18] {L1} Rser={R1}
L1[19] A[18] A[19] {L1} Rser={R1}
L1[20] A[19] A[20] {L1} Rser={R1}
L1[21] A[20] A[21] {L1} Rser={R1}
L1[22] A[21] A[22] {L1} Rser={R1}
L1[23] A[22] A[23] {L1} Rser={R1}
L1[24] A[23] A[24] {L1} Rser={R1}
L1[25] A[24] A[25] {L1} Rser={R1}
L1[26] A[25] A[26] {L1} Rser={R1}
L1[27] A[26] A[27] {L1} Rser={R1}
L1[28] A[27] A[28] {L1} Rser={R1}
L1[29] A[28] A[29] {L1} Rser={R1}
L1[30] A[29] A[30] {L1} Rser={R1}
L1[31] A[30] A[31] {L1} Rser={R1}
C1[1] A[1] B[1] {C1} Rser=0 Rpar={R2}
C1[2] A[2] B[2] {C1} Rser=0 Rpar={R2}
C1[3] A[3] B[3] {C1} Rser=0 Rpar={R2}
C1[4] A[4] B[4] {C1} Rser=0 Rpar={R2}
C1[5] A[5] B[5] {C1} Rser=0 Rpar={R2}
C1[6] A[6] B[6] {C1} Rser=0 Rpar={R2}
C1[7] A[7] B[7] {C1} Rser=0 Rpar={R2}
C1[8] A[8] B[8] {C1} Rser=0 Rpar={R2}
C1[9] A[9] B[9] {C1} Rser=0 Rpar={R2}
C1[10] A[10] B[10] {C1} Rser=0 Rpar={R2}
C1[11] A[11] B[11] {C1} Rser=0 Rpar={R2}
C1[12] A[12] B[12] {C1} Rser=0 Rpar={R2}
C1[13] A[13] B[13] {C1} Rser=0 Rpar={R2}
C1[14] A[14] B[14] {C1} Rser=0 Rpar={R2}
C1[15] A[15] B[15] {C1} Rser=0 Rpar={R2}
C1[16] A[16] B[16] {C1} Rser=0 Rpar={R2}
C1[17] A[17] B[17] {C1} Rser=0 Rpar={R2}
C1[18] A[18] B[18] {C1} Rser=0 Rpar={R2}
C1[19] A[19] B[19] {C1} Rser=0 Rpar={R2}
C1[20] A[20] B[20] {C1} Rser=0 Rpar={R2}
C1[21] A[21] B[21] {C1} Rser=0 Rpar={R2}
C1[22] A[22] B[22] {C1} Rser=0 Rpar={R2}
C1[23] A[23] B[23] {C1} Rser=0 Rpar={R2}
C1[24] A[24] B[24] {C1} Rser=0 Rpar={R2}
C1[25] A[25] B[25] {C1} Rser=0 Rpar={R2}
C1[26] A[26] B[26] {C1} Rser=0 Rpar={R2}
C1[27] A[27] B[27] {C1} Rser=0 Rpar={R2}
C1[28] A[28] B[28] {C1} Rser=0 Rpar={R2}
C1[29] A[29] B[29] {C1} Rser=0 Rpar={R2}
C1[30] A[30] B[30] {C1} Rser=0 Rpar={R2}
C1[31] A[31] B[31] {C1} Rser=0 Rpar={R2}
L2[1] B[0] B[1] {L1} Rser={R1}
L2[2] B[1] B[2] {L1} Rser={R1}
L2[3] B[2] B[3] {L1} Rser={R1}
L2[4] B[3] B[4] {L1} Rser={R1}
L2[5] B[4] B[5] {L1} Rser={R1}
L2[6] B[5] B[6] {L1} Rser={R1}
L2[7] B[6] B[7] {L1} Rser={R1}
L2[8] B[7] B[8] {L1} Rser={R1}
L2[9] B[8] B[9] {L1} Rser={R1}
L2[10] B[9] B[10] {L1} Rser={R1}
L2[11] B[10] B[11] {L1} Rser={R1}
L2[12] B[11] B[12] {L1} Rser={R1}
L2[13] B[12] B[13] {L1} Rser={R1}
L2[14] B[13] B[14] {L1} Rser={R1}
L2[15] B[14] B[15] {L1} Rser={R1}
L2[16] B[15] B[16] {L1} Rser={R1}
L2[17] B[16] B[17] {L1} Rser={R1}
L2[18] B[17] B[18] {L1} Rser={R1}
L2[19] B[18] B[19] {L1} Rser={R1}
L2[20] B[19] B[20] {L1} Rser={R1}
L2[21] B[20] B[21] {L1} Rser={R1}
L2[22] B[21] B[22] {L1} Rser={R1}
L2[23] B[22] B[23] {L1} Rser={R1}
L2[24] B[23] B[24] {L1} Rser={R1}
L2[25] B[24] B[25] {L1} Rser={R1}
L2[26] B[25] B[26] {L1} Rser={R1}
L2[27] B[26] B[27] {L1} Rser={R1}
L2[28] B[27] B[28] {L1} Rser={R1}
L2[29] B[28] B[29] {L1} Rser={R1}
L2[30] B[29] B[30] {L1} Rser={R1}
L2[31] B[30] B[31] {L1} Rser={R1}
C2 A[0] B[0] {C1/2} Rser=0 Rpar={R2*2}
L1 A[31] 3 {L1} Rser={R1}
L2 B[31] 4 {L1} Rser={R1}
C1 3 4 {C1/2} Rser=0 Rpar={R2*2}
.ends symmetric_line32


.subckt symmetric_line64 1 2 3 4
*
+ Ro=100 Len=0.5 R=45m  C=50p  G=0
*
.param L=Ro**2*C N=64 L1=L/N*Len*0.5  R1=R/N*Len  C1=C/N*Len  R2=N/max(0.001f,G)/Len
V1 1 A[0] 0
V2 2 B[0] 0
L1[1] A[0] A[1] {L1} Rser={R1}
L1[2] A[1] A[2] {L1} Rser={R1}
L1[3] A[2] A[3] {L1} Rser={R1}
L1[4] A[3] A[4] {L1} Rser={R1}
L1[5] A[4] A[5] {L1} Rser={R1}
L1[6] A[5] A[6] {L1} Rser={R1}
L1[7] A[6] A[7] {L1} Rser={R1}
L1[8] A[7] A[8] {L1} Rser={R1}
L1[9] A[8] A[9] {L1} Rser={R1}
L1[10] A[9] A[10] {L1} Rser={R1}
L1[11] A[10] A[11] {L1} Rser={R1}
L1[12] A[11] A[12] {L1} Rser={R1}
L1[13] A[12] A[13] {L1} Rser={R1}
L1[14] A[13] A[14] {L1} Rser={R1}
L1[15] A[14] A[15] {L1} Rser={R1}
L1[16] A[15] A[16] {L1} Rser={R1}
L1[17] A[16] A[17] {L1} Rser={R1}
L1[18] A[17] A[18] {L1} Rser={R1}
L1[19] A[18] A[19] {L1} Rser={R1}
L1[20] A[19] A[20] {L1} Rser={R1}
L1[21] A[20] A[21] {L1} Rser={R1}
L1[22] A[21] A[22] {L1} Rser={R1}
L1[23] A[22] A[23] {L1} Rser={R1}
L1[24] A[23] A[24] {L1} Rser={R1}
L1[25] A[24] A[25] {L1} Rser={R1}
L1[26] A[25] A[26] {L1} Rser={R1}
L1[27] A[26] A[27] {L1} Rser={R1}
L1[28] A[27] A[28] {L1} Rser={R1}
L1[29] A[28] A[29] {L1} Rser={R1}
L1[30] A[29] A[30] {L1} Rser={R1}
L1[31] A[30] A[31] {L1} Rser={R1}
L1[32] A[31] A[32] {L1} Rser={R1}
L1[33] A[32] A[33] {L1} Rser={R1}
L1[34] A[33] A[34] {L1} Rser={R1}
L1[35] A[34] A[35] {L1} Rser={R1}
L1[36] A[35] A[36] {L1} Rser={R1}
L1[37] A[36] A[37] {L1} Rser={R1}
L1[38] A[37] A[38] {L1} Rser={R1}
L1[39] A[38] A[39] {L1} Rser={R1}
L1[40] A[39] A[40] {L1} Rser={R1}
L1[41] A[40] A[41] {L1} Rser={R1}
L1[42] A[41] A[42] {L1} Rser={R1}
L1[43] A[42] A[43] {L1} Rser={R1}
L1[44] A[43] A[44] {L1} Rser={R1}
L1[45] A[44] A[45] {L1} Rser={R1}
L1[46] A[45] A[46] {L1} Rser={R1}
L1[47] A[46] A[47] {L1} Rser={R1}
L1[48] A[47] A[48] {L1} Rser={R1}
L1[49] A[48] A[49] {L1} Rser={R1}
L1[50] A[49] A[50] {L1} Rser={R1}
L1[51] A[50] A[51] {L1} Rser={R1}
L1[52] A[51] A[52] {L1} Rser={R1}
L1[53] A[52] A[53] {L1} Rser={R1}
L1[54] A[53] A[54] {L1} Rser={R1}
L1[55] A[54] A[55] {L1} Rser={R1}
L1[56] A[55] A[56] {L1} Rser={R1}
L1[57] A[56] A[57] {L1} Rser={R1}
L1[58] A[57] A[58] {L1} Rser={R1}
L1[59] A[58] A[59] {L1} Rser={R1}
L1[60] A[59] A[60] {L1} Rser={R1}
L1[61] A[60] A[61] {L1} Rser={R1}
L1[62] A[61] A[62] {L1} Rser={R1}
L1[63] A[62] A[63] {L1} Rser={R1}
C1[1] A[1] B[1] {C1} Rser=0 Rpar={R2}
C1[2] A[2] B[2] {C1} Rser=0 Rpar={R2}
C1[3] A[3] B[3] {C1} Rser=0 Rpar={R2}
C1[4] A[4] B[4] {C1} Rser=0 Rpar={R2}
C1[5] A[5] B[5] {C1} Rser=0 Rpar={R2}
C1[6] A[6] B[6] {C1} Rser=0 Rpar={R2}
C1[7] A[7] B[7] {C1} Rser=0 Rpar={R2}
C1[8] A[8] B[8] {C1} Rser=0 Rpar={R2}
C1[9] A[9] B[9] {C1} Rser=0 Rpar={R2}
C1[10] A[10] B[10] {C1} Rser=0 Rpar={R2}
C1[11] A[11] B[11] {C1} Rser=0 Rpar={R2}
C1[12] A[12] B[12] {C1} Rser=0 Rpar={R2}
C1[13] A[13] B[13] {C1} Rser=0 Rpar={R2}
C1[14] A[14] B[14] {C1} Rser=0 Rpar={R2}
C1[15] A[15] B[15] {C1} Rser=0 Rpar={R2}
C1[16] A[16] B[16] {C1} Rser=0 Rpar={R2}
C1[17] A[17] B[17] {C1} Rser=0 Rpar={R2}
C1[18] A[18] B[18] {C1} Rser=0 Rpar={R2}
C1[19] A[19] B[19] {C1} Rser=0 Rpar={R2}
C1[20] A[20] B[20] {C1} Rser=0 Rpar={R2}
C1[21] A[21] B[21] {C1} Rser=0 Rpar={R2}
C1[22] A[22] B[22] {C1} Rser=0 Rpar={R2}
C1[23] A[23] B[23] {C1} Rser=0 Rpar={R2}
C1[24] A[24] B[24] {C1} Rser=0 Rpar={R2}
C1[25] A[25] B[25] {C1} Rser=0 Rpar={R2}
C1[26] A[26] B[26] {C1} Rser=0 Rpar={R2}
C1[27] A[27] B[27] {C1} Rser=0 Rpar={R2}
C1[28] A[28] B[28] {C1} Rser=0 Rpar={R2}
C1[29] A[29] B[29] {C1} Rser=0 Rpar={R2}
C1[30] A[30] B[30] {C1} Rser=0 Rpar={R2}
C1[31] A[31] B[31] {C1} Rser=0 Rpar={R2}
C1[32] A[32] B[32] {C1} Rser=0 Rpar={R2}
C1[33] A[33] B[33] {C1} Rser=0 Rpar={R2}
C1[34] A[34] B[34] {C1} Rser=0 Rpar={R2}
C1[35] A[35] B[35] {C1} Rser=0 Rpar={R2}
C1[36] A[36] B[36] {C1} Rser=0 Rpar={R2}
C1[37] A[37] B[37] {C1} Rser=0 Rpar={R2}
C1[38] A[38] B[38] {C1} Rser=0 Rpar={R2}
C1[39] A[39] B[39] {C1} Rser=0 Rpar={R2}
C1[40] A[40] B[40] {C1} Rser=0 Rpar={R2}
C1[41] A[41] B[41] {C1} Rser=0 Rpar={R2}
C1[42] A[42] B[42] {C1} Rser=0 Rpar={R2}
C1[43] A[43] B[43] {C1} Rser=0 Rpar={R2}
C1[44] A[44] B[44] {C1} Rser=0 Rpar={R2}
C1[45] A[45] B[45] {C1} Rser=0 Rpar={R2}
C1[46] A[46] B[46] {C1} Rser=0 Rpar={R2}
C1[47] A[47] B[47] {C1} Rser=0 Rpar={R2}
C1[48] A[48] B[48] {C1} Rser=0 Rpar={R2}
C1[49] A[49] B[49] {C1} Rser=0 Rpar={R2}
C1[50] A[50] B[50] {C1} Rser=0 Rpar={R2}
C1[51] A[51] B[51] {C1} Rser=0 Rpar={R2}
C1[52] A[52] B[52] {C1} Rser=0 Rpar={R2}
C1[53] A[53] B[53] {C1} Rser=0 Rpar={R2}
C1[54] A[54] B[54] {C1} Rser=0 Rpar={R2}
C1[55] A[55] B[55] {C1} Rser=0 Rpar={R2}
C1[56] A[56] B[56] {C1} Rser=0 Rpar={R2}
C1[57] A[57] B[57] {C1} Rser=0 Rpar={R2}
C1[58] A[58] B[58] {C1} Rser=0 Rpar={R2}
C1[59] A[59] B[59] {C1} Rser=0 Rpar={R2}
C1[60] A[60] B[60] {C1} Rser=0 Rpar={R2}
C1[61] A[61] B[61] {C1} Rser=0 Rpar={R2}
C1[62] A[62] B[62] {C1} Rser=0 Rpar={R2}
C1[63] A[63] B[63] {C1} Rser=0 Rpar={R2}
L2[1] B[0] B[1] {L1} Rser={R1}
L2[2] B[1] B[2] {L1} Rser={R1}
L2[3] B[2] B[3] {L1} Rser={R1}
L2[4] B[3] B[4] {L1} Rser={R1}
L2[5] B[4] B[5] {L1} Rser={R1}
L2[6] B[5] B[6] {L1} Rser={R1}
L2[7] B[6] B[7] {L1} Rser={R1}
L2[8] B[7] B[8] {L1} Rser={R1}
L2[9] B[8] B[9] {L1} Rser={R1}
L2[10] B[9] B[10] {L1} Rser={R1}
L2[11] B[10] B[11] {L1} Rser={R1}
L2[12] B[11] B[12] {L1} Rser={R1}
L2[13] B[12] B[13] {L1} Rser={R1}
L2[14] B[13] B[14] {L1} Rser={R1}
L2[15] B[14] B[15] {L1} Rser={R1}
L2[16] B[15] B[16] {L1} Rser={R1}
L2[17] B[16] B[17] {L1} Rser={R1}
L2[18] B[17] B[18] {L1} Rser={R1}
L2[19] B[18] B[19] {L1} Rser={R1}
L2[20] B[19] B[20] {L1} Rser={R1}
L2[21] B[20] B[21] {L1} Rser={R1}
L2[22] B[21] B[22] {L1} Rser={R1}
L2[23] B[22] B[23] {L1} Rser={R1}
L2[24] B[23] B[24] {L1} Rser={R1}
L2[25] B[24] B[25] {L1} Rser={R1}
L2[26] B[25] B[26] {L1} Rser={R1}
L2[27] B[26] B[27] {L1} Rser={R1}
L2[28] B[27] B[28] {L1} Rser={R1}
L2[29] B[28] B[29] {L1} Rser={R1}
L2[30] B[29] B[30] {L1} Rser={R1}
L2[31] B[30] B[31] {L1} Rser={R1}
L2[32] B[31] B[32] {L1} Rser={R1}
L2[33] B[32] B[33] {L1} Rser={R1}
L2[34] B[33] B[34] {L1} Rser={R1}
L2[35] B[34] B[35] {L1} Rser={R1}
L2[36] B[35] B[36] {L1} Rser={R1}
L2[37] B[36] B[37] {L1} Rser={R1}
L2[38] B[37] B[38] {L1} Rser={R1}
L2[39] B[38] B[39] {L1} Rser={R1}
L2[40] B[39] B[40] {L1} Rser={R1}
L2[41] B[40] B[41] {L1} Rser={R1}
L2[42] B[41] B[42] {L1} Rser={R1}
L2[43] B[42] B[43] {L1} Rser={R1}
L2[44] B[43] B[44] {L1} Rser={R1}
L2[45] B[44] B[45] {L1} Rser={R1}
L2[46] B[45] B[46] {L1} Rser={R1}
L2[47] B[46] B[47] {L1} Rser={R1}
L2[48] B[47] B[48] {L1} Rser={R1}
L2[49] B[48] B[49] {L1} Rser={R1}
L2[50] B[49] B[50] {L1} Rser={R1}
L2[51] B[50] B[51] {L1} Rser={R1}
L2[52] B[51] B[52] {L1} Rser={R1}
L2[53] B[52] B[53] {L1} Rser={R1}
L2[54] B[53] B[54] {L1} Rser={R1}
L2[55] B[54] B[55] {L1} Rser={R1}
L2[56] B[55] B[56] {L1} Rser={R1}
L2[57] B[56] B[57] {L1} Rser={R1}
L2[58] B[57] B[58] {L1} Rser={R1}
L2[59] B[58] B[59] {L1} Rser={R1}
L2[60] B[59] B[60] {L1} Rser={R1}
L2[61] B[60] B[61] {L1} Rser={R1}
L2[62] B[61] B[62] {L1} Rser={R1}
L2[63] B[62] B[63] {L1} Rser={R1}
C2 A[0] B[0] {C1/2} Rser=0 Rpar={R2*2}
L1 A[63] 3 {L1} Rser={R1}
L2 B[63] 4 {L1} Rser={R1}
C1 3 4 {C1/2} Rser=0 Rpar={R2*2}
.ends symmetric_line64

.subckt symmetric_line128 1 2 3 4
+ Ro=100 Len=0.5 R=45m  C=50p  G=0
.param L=Ro**2*C N=128  L1=L/N*Len*0.5  R1=R/N*Len  C1=C/N*Len  R2=N/max(0.001f,G)/Len
V1 1 A[0] 0
V2 2 B[0] 0
L1[1] A[0] A[1] {L1} Rser={R1}
L1[2] A[1] A[2] {L1} Rser={R1}
L1[3] A[2] A[3] {L1} Rser={R1}
L1[4] A[3] A[4] {L1} Rser={R1}
L1[5] A[4] A[5] {L1} Rser={R1}
L1[6] A[5] A[6] {L1} Rser={R1}
L1[7] A[6] A[7] {L1} Rser={R1}
L1[8] A[7] A[8] {L1} Rser={R1}
L1[9] A[8] A[9] {L1} Rser={R1}
L1[10] A[9] A[10] {L1} Rser={R1}
L1[11] A[10] A[11] {L1} Rser={R1}
L1[12] A[11] A[12] {L1} Rser={R1}
L1[13] A[12] A[13] {L1} Rser={R1}
L1[14] A[13] A[14] {L1} Rser={R1}
L1[15] A[14] A[15] {L1} Rser={R1}
L1[16] A[15] A[16] {L1} Rser={R1}
L1[17] A[16] A[17] {L1} Rser={R1}
L1[18] A[17] A[18] {L1} Rser={R1}
L1[19] A[18] A[19] {L1} Rser={R1}
L1[20] A[19] A[20] {L1} Rser={R1}
L1[21] A[20] A[21] {L1} Rser={R1}
L1[22] A[21] A[22] {L1} Rser={R1}
L1[23] A[22] A[23] {L1} Rser={R1}
L1[24] A[23] A[24] {L1} Rser={R1}
L1[25] A[24] A[25] {L1} Rser={R1}
L1[26] A[25] A[26] {L1} Rser={R1}
L1[27] A[26] A[27] {L1} Rser={R1}
L1[28] A[27] A[28] {L1} Rser={R1}
L1[29] A[28] A[29] {L1} Rser={R1}
L1[30] A[29] A[30] {L1} Rser={R1}
L1[31] A[30] A[31] {L1} Rser={R1}
L1[32] A[31] A[32] {L1} Rser={R1}
L1[33] A[32] A[33] {L1} Rser={R1}
L1[34] A[33] A[34] {L1} Rser={R1}
L1[35] A[34] A[35] {L1} Rser={R1}
L1[36] A[35] A[36] {L1} Rser={R1}
L1[37] A[36] A[37] {L1} Rser={R1}
L1[38] A[37] A[38] {L1} Rser={R1}
L1[39] A[38] A[39] {L1} Rser={R1}
L1[40] A[39] A[40] {L1} Rser={R1}
L1[41] A[40] A[41] {L1} Rser={R1}
L1[42] A[41] A[42] {L1} Rser={R1}
L1[43] A[42] A[43] {L1} Rser={R1}
L1[44] A[43] A[44] {L1} Rser={R1}
L1[45] A[44] A[45] {L1} Rser={R1}
L1[46] A[45] A[46] {L1} Rser={R1}
L1[47] A[46] A[47] {L1} Rser={R1}
L1[48] A[47] A[48] {L1} Rser={R1}
L1[49] A[48] A[49] {L1} Rser={R1}
L1[50] A[49] A[50] {L1} Rser={R1}
L1[51] A[50] A[51] {L1} Rser={R1}
L1[52] A[51] A[52] {L1} Rser={R1}
L1[53] A[52] A[53] {L1} Rser={R1}
L1[54] A[53] A[54] {L1} Rser={R1}
L1[55] A[54] A[55] {L1} Rser={R1}
L1[56] A[55] A[56] {L1} Rser={R1}
L1[57] A[56] A[57] {L1} Rser={R1}
L1[58] A[57] A[58] {L1} Rser={R1}
L1[59] A[58] A[59] {L1} Rser={R1}
L1[60] A[59] A[60] {L1} Rser={R1}
L1[61] A[60] A[61] {L1} Rser={R1}
L1[62] A[61] A[62] {L1} Rser={R1}
L1[63] A[62] A[63] {L1} Rser={R1}
L1[64] A[63] A[64] {L1} Rser={R1}
L1[65] A[64] A[65] {L1} Rser={R1}
L1[66] A[65] A[66] {L1} Rser={R1}
L1[67] A[66] A[67] {L1} Rser={R1}
L1[68] A[67] A[68] {L1} Rser={R1}
L1[69] A[68] A[69] {L1} Rser={R1}
L1[70] A[69] A[70] {L1} Rser={R1}
L1[71] A[70] A[71] {L1} Rser={R1}
L1[72] A[71] A[72] {L1} Rser={R1}
L1[73] A[72] A[73] {L1} Rser={R1}
L1[74] A[73] A[74] {L1} Rser={R1}
L1[75] A[74] A[75] {L1} Rser={R1}
L1[76] A[75] A[76] {L1} Rser={R1}
L1[77] A[76] A[77] {L1} Rser={R1}
L1[78] A[77] A[78] {L1} Rser={R1}
L1[79] A[78] A[79] {L1} Rser={R1}
L1[80] A[79] A[80] {L1} Rser={R1}
L1[81] A[80] A[81] {L1} Rser={R1}
L1[82] A[81] A[82] {L1} Rser={R1}
L1[83] A[82] A[83] {L1} Rser={R1}
L1[84] A[83] A[84] {L1} Rser={R1}
L1[85] A[84] A[85] {L1} Rser={R1}
L1[86] A[85] A[86] {L1} Rser={R1}
L1[87] A[86] A[87] {L1} Rser={R1}
L1[88] A[87] A[88] {L1} Rser={R1}
L1[89] A[88] A[89] {L1} Rser={R1}
L1[90] A[89] A[90] {L1} Rser={R1}
L1[91] A[90] A[91] {L1} Rser={R1}
L1[92] A[91] A[92] {L1} Rser={R1}
L1[93] A[92] A[93] {L1} Rser={R1}
L1[94] A[93] A[94] {L1} Rser={R1}
L1[95] A[94] A[95] {L1} Rser={R1}
L1[96] A[95] A[96] {L1} Rser={R1}
L1[97] A[96] A[97] {L1} Rser={R1}
L1[98] A[97] A[98] {L1} Rser={R1}
L1[99] A[98] A[99] {L1} Rser={R1}
L1[100] A[99] A[100] {L1} Rser={R1}
L1[101] A[100] A[101] {L1} Rser={R1}
L1[102] A[101] A[102] {L1} Rser={R1}
L1[103] A[102] A[103] {L1} Rser={R1}
L1[104] A[103] A[104] {L1} Rser={R1}
L1[105] A[104] A[105] {L1} Rser={R1}
L1[106] A[105] A[106] {L1} Rser={R1}
L1[107] A[106] A[107] {L1} Rser={R1}
L1[108] A[107] A[108] {L1} Rser={R1}
L1[109] A[108] A[109] {L1} Rser={R1}
L1[110] A[109] A[110] {L1} Rser={R1}
L1[111] A[110] A[111] {L1} Rser={R1}
L1[112] A[111] A[112] {L1} Rser={R1}
L1[113] A[112] A[113] {L1} Rser={R1}
L1[114] A[113] A[114] {L1} Rser={R1}
L1[115] A[114] A[115] {L1} Rser={R1}
L1[116] A[115] A[116] {L1} Rser={R1}
L1[117] A[116] A[117] {L1} Rser={R1}
L1[118] A[117] A[118] {L1} Rser={R1}
L1[119] A[118] A[119] {L1} Rser={R1}
L1[120] A[119] A[120] {L1} Rser={R1}
L1[121] A[120] A[121] {L1} Rser={R1}
L1[122] A[121] A[122] {L1} Rser={R1}
L1[123] A[122] A[123] {L1} Rser={R1}
L1[124] A[123] A[124] {L1} Rser={R1}
L1[125] A[124] A[125] {L1} Rser={R1}
L1[126] A[125] A[126] {L1} Rser={R1}
L1[127] A[126] A[127] {L1} Rser={R1}
C1[1] A[1] B[1] {C1} Rser=0 Rpar={R2}
C1[2] A[2] B[2] {C1} Rser=0 Rpar={R2}
C1[3] A[3] B[3] {C1} Rser=0 Rpar={R2}
C1[4] A[4] B[4] {C1} Rser=0 Rpar={R2}
C1[5] A[5] B[5] {C1} Rser=0 Rpar={R2}
C1[6] A[6] B[6] {C1} Rser=0 Rpar={R2}
C1[7] A[7] B[7] {C1} Rser=0 Rpar={R2}
C1[8] A[8] B[8] {C1} Rser=0 Rpar={R2}
C1[9] A[9] B[9] {C1} Rser=0 Rpar={R2}
C1[10] A[10] B[10] {C1} Rser=0 Rpar={R2}
C1[11] A[11] B[11] {C1} Rser=0 Rpar={R2}
C1[12] A[12] B[12] {C1} Rser=0 Rpar={R2}
C1[13] A[13] B[13] {C1} Rser=0 Rpar={R2}
C1[14] A[14] B[14] {C1} Rser=0 Rpar={R2}
C1[15] A[15] B[15] {C1} Rser=0 Rpar={R2}
C1[16] A[16] B[16] {C1} Rser=0 Rpar={R2}
C1[17] A[17] B[17] {C1} Rser=0 Rpar={R2}
C1[18] A[18] B[18] {C1} Rser=0 Rpar={R2}
C1[19] A[19] B[19] {C1} Rser=0 Rpar={R2}
C1[20] A[20] B[20] {C1} Rser=0 Rpar={R2}
C1[21] A[21] B[21] {C1} Rser=0 Rpar={R2}
C1[22] A[22] B[22] {C1} Rser=0 Rpar={R2}
C1[23] A[23] B[23] {C1} Rser=0 Rpar={R2}
C1[24] A[24] B[24] {C1} Rser=0 Rpar={R2}
C1[25] A[25] B[25] {C1} Rser=0 Rpar={R2}
C1[26] A[26] B[26] {C1} Rser=0 Rpar={R2}
C1[27] A[27] B[27] {C1} Rser=0 Rpar={R2}
C1[28] A[28] B[28] {C1} Rser=0 Rpar={R2}
C1[29] A[29] B[29] {C1} Rser=0 Rpar={R2}
C1[30] A[30] B[30] {C1} Rser=0 Rpar={R2}
C1[31] A[31] B[31] {C1} Rser=0 Rpar={R2}
C1[32] A[32] B[32] {C1} Rser=0 Rpar={R2}
C1[33] A[33] B[33] {C1} Rser=0 Rpar={R2}
C1[34] A[34] B[34] {C1} Rser=0 Rpar={R2}
C1[35] A[35] B[35] {C1} Rser=0 Rpar={R2}
C1[36] A[36] B[36] {C1} Rser=0 Rpar={R2}
C1[37] A[37] B[37] {C1} Rser=0 Rpar={R2}
C1[38] A[38] B[38] {C1} Rser=0 Rpar={R2}
C1[39] A[39] B[39] {C1} Rser=0 Rpar={R2}
C1[40] A[40] B[40] {C1} Rser=0 Rpar={R2}
C1[41] A[41] B[41] {C1} Rser=0 Rpar={R2}
C1[42] A[42] B[42] {C1} Rser=0 Rpar={R2}
C1[43] A[43] B[43] {C1} Rser=0 Rpar={R2}
C1[44] A[44] B[44] {C1} Rser=0 Rpar={R2}
C1[45] A[45] B[45] {C1} Rser=0 Rpar={R2}
C1[46] A[46] B[46] {C1} Rser=0 Rpar={R2}
C1[47] A[47] B[47] {C1} Rser=0 Rpar={R2}
C1[48] A[48] B[48] {C1} Rser=0 Rpar={R2}
C1[49] A[49] B[49] {C1} Rser=0 Rpar={R2}
C1[50] A[50] B[50] {C1} Rser=0 Rpar={R2}
C1[51] A[51] B[51] {C1} Rser=0 Rpar={R2}
C1[52] A[52] B[52] {C1} Rser=0 Rpar={R2}
C1[53] A[53] B[53] {C1} Rser=0 Rpar={R2}
C1[54] A[54] B[54] {C1} Rser=0 Rpar={R2}
C1[55] A[55] B[55] {C1} Rser=0 Rpar={R2}
C1[56] A[56] B[56] {C1} Rser=0 Rpar={R2}
C1[57] A[57] B[57] {C1} Rser=0 Rpar={R2}
C1[58] A[58] B[58] {C1} Rser=0 Rpar={R2}
C1[59] A[59] B[59] {C1} Rser=0 Rpar={R2}
C1[60] A[60] B[60] {C1} Rser=0 Rpar={R2}
C1[61] A[61] B[61] {C1} Rser=0 Rpar={R2}
C1[62] A[62] B[62] {C1} Rser=0 Rpar={R2}
C1[63] A[63] B[63] {C1} Rser=0 Rpar={R2}
C1[64] A[64] B[64] {C1} Rser=0 Rpar={R2}
C1[65] A[65] B[65] {C1} Rser=0 Rpar={R2}
C1[66] A[66] B[66] {C1} Rser=0 Rpar={R2}
C1[67] A[67] B[67] {C1} Rser=0 Rpar={R2}
C1[68] A[68] B[68] {C1} Rser=0 Rpar={R2}
C1[69] A[69] B[69] {C1} Rser=0 Rpar={R2}
C1[70] A[70] B[70] {C1} Rser=0 Rpar={R2}
C1[71] A[71] B[71] {C1} Rser=0 Rpar={R2}
C1[72] A[72] B[72] {C1} Rser=0 Rpar={R2}
C1[73] A[73] B[73] {C1} Rser=0 Rpar={R2}
C1[74] A[74] B[74] {C1} Rser=0 Rpar={R2}
C1[75] A[75] B[75] {C1} Rser=0 Rpar={R2}
C1[76] A[76] B[76] {C1} Rser=0 Rpar={R2}
C1[77] A[77] B[77] {C1} Rser=0 Rpar={R2}
C1[78] A[78] B[78] {C1} Rser=0 Rpar={R2}
C1[79] A[79] B[79] {C1} Rser=0 Rpar={R2}
C1[80] A[80] B[80] {C1} Rser=0 Rpar={R2}
C1[81] A[81] B[81] {C1} Rser=0 Rpar={R2}
C1[82] A[82] B[82] {C1} Rser=0 Rpar={R2}
C1[83] A[83] B[83] {C1} Rser=0 Rpar={R2}
C1[84] A[84] B[84] {C1} Rser=0 Rpar={R2}
C1[85] A[85] B[85] {C1} Rser=0 Rpar={R2}
C1[86] A[86] B[86] {C1} Rser=0 Rpar={R2}
C1[87] A[87] B[87] {C1} Rser=0 Rpar={R2}
C1[88] A[88] B[88] {C1} Rser=0 Rpar={R2}
C1[89] A[89] B[89] {C1} Rser=0 Rpar={R2}
C1[90] A[90] B[90] {C1} Rser=0 Rpar={R2}
C1[91] A[91] B[91] {C1} Rser=0 Rpar={R2}
C1[92] A[92] B[92] {C1} Rser=0 Rpar={R2}
C1[93] A[93] B[93] {C1} Rser=0 Rpar={R2}
C1[94] A[94] B[94] {C1} Rser=0 Rpar={R2}
C1[95] A[95] B[95] {C1} Rser=0 Rpar={R2}
C1[96] A[96] B[96] {C1} Rser=0 Rpar={R2}
C1[97] A[97] B[97] {C1} Rser=0 Rpar={R2}
C1[98] A[98] B[98] {C1} Rser=0 Rpar={R2}
C1[99] A[99] B[99] {C1} Rser=0 Rpar={R2}
C1[100] A[100] B[100] {C1} Rser=0 Rpar={R2}
C1[101] A[101] B[101] {C1} Rser=0 Rpar={R2}
C1[102] A[102] B[102] {C1} Rser=0 Rpar={R2}
C1[103] A[103] B[103] {C1} Rser=0 Rpar={R2}
C1[104] A[104] B[104] {C1} Rser=0 Rpar={R2}
C1[105] A[105] B[105] {C1} Rser=0 Rpar={R2}
C1[106] A[106] B[106] {C1} Rser=0 Rpar={R2}
C1[107] A[107] B[107] {C1} Rser=0 Rpar={R2}
C1[108] A[108] B[108] {C1} Rser=0 Rpar={R2}
C1[109] A[109] B[109] {C1} Rser=0 Rpar={R2}
C1[110] A[110] B[110] {C1} Rser=0 Rpar={R2}
C1[111] A[111] B[111] {C1} Rser=0 Rpar={R2}
C1[112] A[112] B[112] {C1} Rser=0 Rpar={R2}
C1[113] A[113] B[113] {C1} Rser=0 Rpar={R2}
C1[114] A[114] B[114] {C1} Rser=0 Rpar={R2}
C1[115] A[115] B[115] {C1} Rser=0 Rpar={R2}
C1[116] A[116] B[116] {C1} Rser=0 Rpar={R2}
C1[117] A[117] B[117] {C1} Rser=0 Rpar={R2}
C1[118] A[118] B[118] {C1} Rser=0 Rpar={R2}
C1[119] A[119] B[119] {C1} Rser=0 Rpar={R2}
C1[120] A[120] B[120] {C1} Rser=0 Rpar={R2}
C1[121] A[121] B[121] {C1} Rser=0 Rpar={R2}
C1[122] A[122] B[122] {C1} Rser=0 Rpar={R2}
C1[123] A[123] B[123] {C1} Rser=0 Rpar={R2}
C1[124] A[124] B[124] {C1} Rser=0 Rpar={R2}
C1[125] A[125] B[125] {C1} Rser=0 Rpar={R2}
C1[126] A[126] B[126] {C1} Rser=0 Rpar={R2}
C1[127] A[127] B[127] {C1} Rser=0 Rpar={R2}
L2[1] B[0] B[1] {L1} Rser={R1}
L2[2] B[1] B[2] {L1} Rser={R1}
L2[3] B[2] B[3] {L1} Rser={R1}
L2[4] B[3] B[4] {L1} Rser={R1}
L2[5] B[4] B[5] {L1} Rser={R1}
L2[6] B[5] B[6] {L1} Rser={R1}
L2[7] B[6] B[7] {L1} Rser={R1}
L2[8] B[7] B[8] {L1} Rser={R1}
L2[9] B[8] B[9] {L1} Rser={R1}
L2[10] B[9] B[10] {L1} Rser={R1}
L2[11] B[10] B[11] {L1} Rser={R1}
L2[12] B[11] B[12] {L1} Rser={R1}
L2[13] B[12] B[13] {L1} Rser={R1}
L2[14] B[13] B[14] {L1} Rser={R1}
L2[15] B[14] B[15] {L1} Rser={R1}
L2[16] B[15] B[16] {L1} Rser={R1}
L2[17] B[16] B[17] {L1} Rser={R1}
L2[18] B[17] B[18] {L1} Rser={R1}
L2[19] B[18] B[19] {L1} Rser={R1}
L2[20] B[19] B[20] {L1} Rser={R1}
L2[21] B[20] B[21] {L1} Rser={R1}
L2[22] B[21] B[22] {L1} Rser={R1}
L2[23] B[22] B[23] {L1} Rser={R1}
L2[24] B[23] B[24] {L1} Rser={R1}
L2[25] B[24] B[25] {L1} Rser={R1}
L2[26] B[25] B[26] {L1} Rser={R1}
L2[27] B[26] B[27] {L1} Rser={R1}
L2[28] B[27] B[28] {L1} Rser={R1}
L2[29] B[28] B[29] {L1} Rser={R1}
L2[30] B[29] B[30] {L1} Rser={R1}
L2[31] B[30] B[31] {L1} Rser={R1}
L2[32] B[31] B[32] {L1} Rser={R1}
L2[33] B[32] B[33] {L1} Rser={R1}
L2[34] B[33] B[34] {L1} Rser={R1}
L2[35] B[34] B[35] {L1} Rser={R1}
L2[36] B[35] B[36] {L1} Rser={R1}
L2[37] B[36] B[37] {L1} Rser={R1}
L2[38] B[37] B[38] {L1} Rser={R1}
L2[39] B[38] B[39] {L1} Rser={R1}
L2[40] B[39] B[40] {L1} Rser={R1}
L2[41] B[40] B[41] {L1} Rser={R1}
L2[42] B[41] B[42] {L1} Rser={R1}
L2[43] B[42] B[43] {L1} Rser={R1}
L2[44] B[43] B[44] {L1} Rser={R1}
L2[45] B[44] B[45] {L1} Rser={R1}
L2[46] B[45] B[46] {L1} Rser={R1}
L2[47] B[46] B[47] {L1} Rser={R1}
L2[48] B[47] B[48] {L1} Rser={R1}
L2[49] B[48] B[49] {L1} Rser={R1}
L2[50] B[49] B[50] {L1} Rser={R1}
L2[51] B[50] B[51] {L1} Rser={R1}
L2[52] B[51] B[52] {L1} Rser={R1}
L2[53] B[52] B[53] {L1} Rser={R1}
L2[54] B[53] B[54] {L1} Rser={R1}
L2[55] B[54] B[55] {L1} Rser={R1}
L2[56] B[55] B[56] {L1} Rser={R1}
L2[57] B[56] B[57] {L1} Rser={R1}
L2[58] B[57] B[58] {L1} Rser={R1}
L2[59] B[58] B[59] {L1} Rser={R1}
L2[60] B[59] B[60] {L1} Rser={R1}
L2[61] B[60] B[61] {L1} Rser={R1}
L2[62] B[61] B[62] {L1} Rser={R1}
L2[63] B[62] B[63] {L1} Rser={R1}
L2[64] B[63] B[64] {L1} Rser={R1}
L2[65] B[64] B[65] {L1} Rser={R1}
L2[66] B[65] B[66] {L1} Rser={R1}
L2[67] B[66] B[67] {L1} Rser={R1}
L2[68] B[67] B[68] {L1} Rser={R1}
L2[69] B[68] B[69] {L1} Rser={R1}
L2[70] B[69] B[70] {L1} Rser={R1}
L2[71] B[70] B[71] {L1} Rser={R1}
L2[72] B[71] B[72] {L1} Rser={R1}
L2[73] B[72] B[73] {L1} Rser={R1}
L2[74] B[73] B[74] {L1} Rser={R1}
L2[75] B[74] B[75] {L1} Rser={R1}
L2[76] B[75] B[76] {L1} Rser={R1}
L2[77] B[76] B[77] {L1} Rser={R1}
L2[78] B[77] B[78] {L1} Rser={R1}
L2[79] B[78] B[79] {L1} Rser={R1}
L2[80] B[79] B[80] {L1} Rser={R1}
L2[81] B[80] B[81] {L1} Rser={R1}
L2[82] B[81] B[82] {L1} Rser={R1}
L2[83] B[82] B[83] {L1} Rser={R1}
L2[84] B[83] B[84] {L1} Rser={R1}
L2[85] B[84] B[85] {L1} Rser={R1}
L2[86] B[85] B[86] {L1} Rser={R1}
L2[87] B[86] B[87] {L1} Rser={R1}
L2[88] B[87] B[88] {L1} Rser={R1}
L2[89] B[88] B[89] {L1} Rser={R1}
L2[90] B[89] B[90] {L1} Rser={R1}
L2[91] B[90] B[91] {L1} Rser={R1}
L2[92] B[91] B[92] {L1} Rser={R1}
L2[93] B[92] B[93] {L1} Rser={R1}
L2[94] B[93] B[94] {L1} Rser={R1}
L2[95] B[94] B[95] {L1} Rser={R1}
L2[96] B[95] B[96] {L1} Rser={R1}
L2[97] B[96] B[97] {L1} Rser={R1}
L2[98] B[97] B[98] {L1} Rser={R1}
L2[99] B[98] B[99] {L1} Rser={R1}
L2[100] B[99] B[100] {L1} Rser={R1}
L2[101] B[100] B[101] {L1} Rser={R1}
L2[102] B[101] B[102] {L1} Rser={R1}
L2[103] B[102] B[103] {L1} Rser={R1}
L2[104] B[103] B[104] {L1} Rser={R1}
L2[105] B[104] B[105] {L1} Rser={R1}
L2[106] B[105] B[106] {L1} Rser={R1}
L2[107] B[106] B[107] {L1} Rser={R1}
L2[108] B[107] B[108] {L1} Rser={R1}
L2[109] B[108] B[109] {L1} Rser={R1}
L2[110] B[109] B[110] {L1} Rser={R1}
L2[111] B[110] B[111] {L1} Rser={R1}
L2[112] B[111] B[112] {L1} Rser={R1}
L2[113] B[112] B[113] {L1} Rser={R1}
L2[114] B[113] B[114] {L1} Rser={R1}
L2[115] B[114] B[115] {L1} Rser={R1}
L2[116] B[115] B[116] {L1} Rser={R1}
L2[117] B[116] B[117] {L1} Rser={R1}
L2[118] B[117] B[118] {L1} Rser={R1}
L2[119] B[118] B[119] {L1} Rser={R1}
L2[120] B[119] B[120] {L1} Rser={R1}
L2[121] B[120] B[121] {L1} Rser={R1}
L2[122] B[121] B[122] {L1} Rser={R1}
L2[123] B[122] B[123] {L1} Rser={R1}
L2[124] B[123] B[124] {L1} Rser={R1}
L2[125] B[124] B[125] {L1} Rser={R1}
L2[126] B[125] B[126] {L1} Rser={R1}
L2[127] B[126] B[127] {L1} Rser={R1}
C2 A[0] B[0] {C1/2} Rser=0 Rpar={R2*2}
L1 A[127] 3 {L1} Rser={R1}
L2 B[127] 4 {L1} Rser={R1}
C1 3 4 {C1/2} Rser=0 Rpar={R2*2}
.ends symmetric_line128

.subckt symmetric_line256 1 2 3 4
+ Ro=100 Len=0.5 R=45m  C=50p  G=0
.param L=Ro**2*C N=256  L1=L/N*Len*0.5  R1=R/N*Len  C1=C/N*Len  R2=N/max(0.001f,G)/Len
V1 1 A[0] 0
V2 2 B[0] 0
L1[1] A[0] A[1] {L1} Rser={R1}
L1[2] A[1] A[2] {L1} Rser={R1}
L1[3] A[2] A[3] {L1} Rser={R1}
L1[4] A[3] A[4] {L1} Rser={R1}
L1[5] A[4] A[5] {L1} Rser={R1}
L1[6] A[5] A[6] {L1} Rser={R1}
L1[7] A[6] A[7] {L1} Rser={R1}
L1[8] A[7] A[8] {L1} Rser={R1}
L1[9] A[8] A[9] {L1} Rser={R1}
L1[10] A[9] A[10] {L1} Rser={R1}
L1[11] A[10] A[11] {L1} Rser={R1}
L1[12] A[11] A[12] {L1} Rser={R1}
L1[13] A[12] A[13] {L1} Rser={R1}
L1[14] A[13] A[14] {L1} Rser={R1}
L1[15] A[14] A[15] {L1} Rser={R1}
L1[16] A[15] A[16] {L1} Rser={R1}
L1[17] A[16] A[17] {L1} Rser={R1}
L1[18] A[17] A[18] {L1} Rser={R1}
L1[19] A[18] A[19] {L1} Rser={R1}
L1[20] A[19] A[20] {L1} Rser={R1}
L1[21] A[20] A[21] {L1} Rser={R1}
L1[22] A[21] A[22] {L1} Rser={R1}
L1[23] A[22] A[23] {L1} Rser={R1}
L1[24] A[23] A[24] {L1} Rser={R1}
L1[25] A[24] A[25] {L1} Rser={R1}
L1[26] A[25] A[26] {L1} Rser={R1}
L1[27] A[26] A[27] {L1} Rser={R1}
L1[28] A[27] A[28] {L1} Rser={R1}
L1[29] A[28] A[29] {L1} Rser={R1}
L1[30] A[29] A[30] {L1} Rser={R1}
L1[31] A[30] A[31] {L1} Rser={R1}
L1[32] A[31] A[32] {L1} Rser={R1}
L1[33] A[32] A[33] {L1} Rser={R1}
L1[34] A[33] A[34] {L1} Rser={R1}
L1[35] A[34] A[35] {L1} Rser={R1}
L1[36] A[35] A[36] {L1} Rser={R1}
L1[37] A[36] A[37] {L1} Rser={R1}
L1[38] A[37] A[38] {L1} Rser={R1}
L1[39] A[38] A[39] {L1} Rser={R1}
L1[40] A[39] A[40] {L1} Rser={R1}
L1[41] A[40] A[41] {L1} Rser={R1}
L1[42] A[41] A[42] {L1} Rser={R1}
L1[43] A[42] A[43] {L1} Rser={R1}
L1[44] A[43] A[44] {L1} Rser={R1}
L1[45] A[44] A[45] {L1} Rser={R1}
L1[46] A[45] A[46] {L1} Rser={R1}
L1[47] A[46] A[47] {L1} Rser={R1}
L1[48] A[47] A[48] {L1} Rser={R1}
L1[49] A[48] A[49] {L1} Rser={R1}
L1[50] A[49] A[50] {L1} Rser={R1}
L1[51] A[50] A[51] {L1} Rser={R1}
L1[52] A[51] A[52] {L1} Rser={R1}
L1[53] A[52] A[53] {L1} Rser={R1}
L1[54] A[53] A[54] {L1} Rser={R1}
L1[55] A[54] A[55] {L1} Rser={R1}
L1[56] A[55] A[56] {L1} Rser={R1}
L1[57] A[56] A[57] {L1} Rser={R1}
L1[58] A[57] A[58] {L1} Rser={R1}
L1[59] A[58] A[59] {L1} Rser={R1}
L1[60] A[59] A[60] {L1} Rser={R1}