***********************************************************************************
**** SPICE MODELING by JIM THOMPSON, http://www.analog-innovations.com/ © 2018 ****
***********************************************************************************
*** NOTES ***
*** Symbol and Library are assumed located in C:\LTspiceIV\lib\sym\AutoGenerated **
*** Edit accordingly ***
*** It is recommended that the Alternate Solver be used ***
*** Set ABSTOL=1nA VNTOL=1mV ***
*** If Hard Input Clamps cause convergence problems, edit CLAMP=0 ***
***********************************************************************************
.SUBCKT TC4421-JT IN OUT VP VN 
do1 OUT VP D0
do2 VN out D0
.model D0 D Vfwd=0 Ron=1 Roff=10Meg
GDC_I8         GUTS NLSETN VALUE 
+ {(1+TANH(2.2/0.1V*(V(GUTS,NLSETN)-0.2V)))/2*200uA}
GDC_I7         GUTS LSETN VALUE 
+ {(1+TANH(2.2/0.1V*(V(GUTS,LSETN)-0.2V)))/2*200uA}
GDC_I3         GUTS LEW VALUE {(1+TANH(2.2/0.1V*(V(GUTS,LEW)-0.2V)))/2*200uA}
GDC_I5         GUTS RSET VALUE {(1+TANH(2.2/0.1V*(V(GUTS,RSET)-0.2V)))/2*200uA}
GDC_I6         GUTS RSETN VALUE 
+ {(1+TANH(2.2/0.1V*(V(GUTS,RSETN)-0.2V)))/2*200uA}
GDC_I4         GUTS LSET VALUE {(1+TANH(2.2/0.1V*(V(GUTS,LSET)-0.2V)))/2*200uA}
R_NOF4         RSETG 0 1G
R_NOF3         LSETG 0 1G
E_E3         LSETG VN VALUE { (1+TANH(20*(V(LSET, VN)-1.56)))/2 }
V_VGUTS          GUTS  VN  3V
G_GLC2         NLSETN VN VALUE { ((1+TANH(20*(V(LEW,
+  VN)-1.95))))*(200u)*(1+TANH(2.2/0.1V*(V(NLSETN,VN)-0.2V)))/2 }
R_RNOF2          VN  GUTS  1G
G_GLC8         LSETN VN VALUE { ((1+TANH(20*(V(NLSETN,
+  VN)-1.5))))*(200u)*(1+TANH(2.2/0.1V*(V(LSETN,VN)-0.2V)))/2 }
G_GLC7         LSET VN VALUE { ((1+TANH(20*(V(LSETN,
+  VN)-1.5))))*(200u)*(1+TANH(2.2/0.1V*(V(LSET,VN)-0.2V)))/2 }
C_C8         NLSETN VN  133fF 
C_C7         LSETN VN  133fF 
G_GLC3         LSET VN VALUE { ((1+TANH(20*(V(RSET,
+  VN)-1.5))))*(200u)*(1+TANH(2.2/0.1V*(V(LSET,VN)-0.2V)))/2 }
GDC_I9         LSET VN VALUE {(1+TANH(2.2/0.1V*(V(LSET,VN)-2.5V)))/2*1uA}
G_GLC4         RSET VN VALUE { ((1+TANH(20*(V(LSET,
+  VN)-1.5))))*(200u)*(1+TANH(2.2/0.1V*(V(RSET,VN)-0.2V)))/2 }
G_GLC5         RSET VN VALUE { ((1+TANH(20*(V(RSETN,
+  VN)-1.5))))*(200u)*(1+TANH(2.2/0.1V*(V(RSET,VN)-0.2V)))/2 }
C_C5         LSET VN  {MST*133fF} 
C_C4         RSET VN  {MST*133fF} 
G_GLC6         RSETN VN VALUE { ((1+TANH(20*(V(LEW,
+  VN)-1.13))))*(200u)*(1+TANH(2.2/0.1V*(V(RSETN,VN)-0.2V)))/2 }
C_C6         RSETN VN  133fF 
GDC_I10         RSET VN VALUE {(1+TANH(2.2/0.1V*(V(RSET,VN)-2.5V)))/2*1uA}
E_E4         RSETG VN VALUE { (1+TANH(20*(V(RSET, VN)-1.56)))/2 }
****         
.PARAM         CLAMP=1 MST=1
G_GLC12         N_1 VN VALUE { (V(RSETG,
+  VN)*(EXP(212.523m*V(VP,VN)-1.77047)))*(1)*(1+TANH(2.2/0.1*(V(N_1,VN)-0.2)))/2
+  }
C_CSTRAYU         VP OUT  1.1265nF 
R_NOF6         OUT 0 1G
C_CSTRAYL         OUT VN  1.1265nF 
R_ROUT         N_1 OUT  1.4 
GDC_I1         VN IN VALUE {(1+TANH(2.2/0.4V*(V(VN,IN)-5.6V)))/2*{CLAMP*1A}}
GDC_I2         IN GUTS VALUE {(1+TANH(2.2/0.2V*(V(IN,GUTS)-0.788V)))/2*
+ {CLAMP*1A}}
R_RNOF1          VN  IN  1G
G_GLC1         LEW VN VALUE { ((1+TANH(20*V(LEW,
+  IN))))*(200u)*(1+TANH(2.2/0.1V*(V(LEW,VN)-0.2V)))/2 }
C_CIN         IN VN  25pF 
C_CSLEW         LEW VN  3pF 
G_GLC11         VP N_1 VALUE { (V(LSETG,
+  VN)*(EXP(212.523m*V(VP,VN)-1.77047)))*(1)*(1+TANH(2.2/0.1*(V(VP,N_1)-0.2)))/2
+  }
.ENDS    TC4421-JT
*********************************
.SUBCKT TC4422-JT IN OUT VP VN 
do1 OUT VP D0
do2 VN out D0
.model D0 D Vfwd=0 Ron=1 Roff=10Meg
GDC_I8         GUTS NLSETN VALUE 
+ {(1+TANH(2.2/0.1V*(V(GUTS,NLSETN)-0.2V)))/2*200uA}
GDC_I7         GUTS LSETN VALUE 
+ {(1+TANH(2.2/0.1V*(V(GUTS,LSETN)-0.2V)))/2*200uA}
GDC_I3         GUTS LEW VALUE {(1+TANH(2.2/0.1V*(V(GUTS,LEW)-0.2V)))/2*200uA}
GDC_I5         GUTS RSET VALUE {(1+TANH(2.2/0.1V*(V(GUTS,RSET)-0.2V)))/2*200uA}
GDC_I6         GUTS RSETN VALUE 
+ {(1+TANH(2.2/0.1V*(V(GUTS,RSETN)-0.2V)))/2*200uA}
GDC_I4         GUTS LSET VALUE {(1+TANH(2.2/0.1V*(V(GUTS,LSET)-0.2V)))/2*200uA}
R_NOF4         RSETG 0 1G
R_NOF3         LSETG 0 1G
E_E3         LSETG VN VALUE { (1+TANH(20*(V(LSET, VN)-1.56)))/2 }
V_VGUTS          GUTS  VN  3V
G_GLC2         NLSETN VN VALUE { ((1+TANH(20*(V(LEW,
+  VN)-1.95))))*(200u)*(1+TANH(2.2/0.1V*(V(NLSETN,VN)-0.2V)))/2 }
R_RNOF2          VN  GUTS  1G
G_GLC8         LSETN VN VALUE { ((1+TANH(20*(V(NLSETN,
+  VN)-1.5))))*(200u)*(1+TANH(2.2/0.1V*(V(LSETN,VN)-0.2V)))/2 }
G_GLC7         LSET VN VALUE { ((1+TANH(20*(V(LSETN,
+  VN)-1.5))))*(200u)*(1+TANH(2.2/0.1V*(V(LSET,VN)-0.2V)))/2 }
C_C8         NLSETN VN  133fF 
C_C7         LSETN VN  133fF 
G_GLC3         LSET VN VALUE { ((1+TANH(20*(V(RSET,
+  VN)-1.5))))*(200u)*(1+TANH(2.2/0.1V*(V(LSET,VN)-0.2V)))/2 }
GDC_I9         LSET VN VALUE {(1+TANH(2.2/0.1V*(V(LSET,VN)-2.5V)))/2*1uA}
G_GLC4         RSET VN VALUE { ((1+TANH(20*(V(LSET,
+  VN)-1.5))))*(200u)*(1+TANH(2.2/0.1V*(V(RSET,VN)-0.2V)))/2 }
G_GLC5         RSET VN VALUE { ((1+TANH(20*(V(RSETN,
+  VN)-1.5))))*(200u)*(1+TANH(2.2/0.1V*(V(RSET,VN)-0.2V)))/2 }
C_C5         LSET VN  {MST*133fF} 
C_C4         RSET VN  {MST*133fF} 
G_GLC6         RSETN VN VALUE { ((1+TANH(20*(V(LEW,
+  VN)-1.13))))*(200u)*(1+TANH(2.2/0.1V*(V(RSETN,VN)-0.2V)))/2 }
C_C6         RSETN VN  133fF 
GDC_I10         RSET VN VALUE {(1+TANH(2.2/0.1V*(V(RSET,VN)-2.5V)))/2*1uA}
E_E4         RSETG VN VALUE { (1+TANH(20*(V(RSET, VN)-1.56)))/2 }
****         
.PARAM         CLAMP=1 MST=1
G_GLC12         N_1 VN VALUE { (V(LSETG,
+  VN)*(EXP(212.523m*V(VP,VN)-1.77047)))*(1)*(1+TANH(2.2/0.1*(V(N_1,VN)-0.2)))/2
+  }
C_CSTRAYU         VP OUT  1.1265nF 
R_NOF6         OUT 0 1G
C_CSTRAYL         OUT VN  1.1265nF 
R_ROUT         N_1 OUT  1.4 
GDC_I1         VN IN VALUE {(1+TANH(2.2/0.4V*(V(VN,IN)-5.6V)))/2*{CLAMP*1A}}
GDC_I2         IN GUTS VALUE {(1+TANH(2.2/0.2V*(V(IN,GUTS)-0.788V)))/2*
+ {CLAMP*1A}}
R_RNOF1          VN  IN  1G
G_GLC1         LEW VN VALUE { ((1+TANH(20*V(LEW,
+  IN))))*(200u)*(1+TANH(2.2/0.1V*(V(LEW,VN)-0.2V)))/2 }
C_CIN         IN VN  25pF 
C_CSLEW         LEW VN  3pF 
G_GLC11         VP N_1 VALUE { (V(RSETG,
+  VN)*(EXP(212.523m*V(VP,VN)-1.77047)))*(1)*(1+TANH(2.2/0.1*(V(VP,N_1)-0.2)))/2
+  }
.ENDS    TC4422-JT

