.opt gmin=10n
**********
**********
.SUBCKT SIDAC   10   2 Rs=0.755 BV=64 
*     TERMINALS: MT2 MT2
L 1 10 20n   Rpar=1k Rser={Rs} 
d1 8 2 Dmy
d2 5 1 Dmy 
.model Dmy d is=10u Rs=100k
QN1 5 4 2  NOUT OFF
QN2 8 6 1  NOUT OFF
QP1 6 8 2  POUT OFF
QP2 4 5 1  POUT OFF
RH  1 6    11.5
RH2 4 2    11.5
.MODEL POUT PNP IS=1p  BF=10 CJE=134P  TF=25.5U  nBVcbo=3  BVcbo={BV}
.MODEL NOUT NPN IS=1p  BF=20 CJE=134P CJC=26.8P  TF=1.7 nBVcbo=3  BVcbo={BV} 
.ENDS

.SUBCKT K1100E70  10   2 
X 10 2 SIDAC Rs=0.755 BV=118
.ENDS
*
.SUBCKT K1050E70  10   2
X 10 2 SIDAC Rs=0.755 BV=113
.ENDS
**********
.SUBCKT K1200E70  10   2
X 10 2 SIDAC Rs=0.755 BV=125
.ENDS
**********
.SUBCKT K1300E70  10   2
X 10 2 SIDAC Rs=0.755 BV=138
.ENDS
**********
.SUBCKT K1400E70  10   2
X 10 2 SIDAC Rs=0.755 BV=146
.ENDS
**********
.SUBCKT K1500E70  10   2
X 10 2 SIDAC Rs=0.755 BV=170
.ENDS
.SUBCKT K2000F1   10   2
X 10 2 SIDAC Rs=2.25 BV=215
.ENDS
*
.SUBCKT K2200F1   10   2
X 10 2 SIDAC Rs=2.25 BV=230
.ENDS
*
.SUBCKT K2400F1   10   2
X 10 2 SIDAC Rs=2.25 BV=250
.ENDS
*
.SUBCKT K2401F1   10   2
X 10 2 SIDAC Rs=2.25 BV=250
.ENDS
*
.SUBCKT K2500F1   10   2
X 10 2 SIDAC Rs=2.25 BV=280
.ENDS
*
.SUBCKT K2501F1   10   2
X 10 2 SIDAC Rs=2.25 BV=280
.ENDS
*
.SUBCKT K3000F1   10   2
X 10 2 SIDAC Rs=2.25 BV=330
.ENDS
