**********
*SYM=SCR
*SRC=EC103A;EC103A;SCRs;TECCOR; 100V 0.8A 
.SUBCKT EC103A   1 2 3
*    TERMINALS:  A G K
QP  6 4 1  POUT OFF
QN  4 6 5  NOUT OFF
RF  6 4    200K
RR  1 4    133K
RGK 6 5    240
RG  2 6    9.09
RK  3 5    0.112
DF  6 4    ZF
DR  1 4    ZR
DGK 6 5    ZGK
.MODEL ZF   D (IS=3.2E-16 IBV=100U BV=100)
.MODEL ZR   D (IS=3.2E-16 IBV=100U BV=100)
.MODEL ZGK  D (IS=3.2E-16 IBV=100U BV=5)
.MODEL POUT PNP (IS=320F BF=1 CJE=112P TF=85U)
.MODEL NOUT NPN (IS=320F BF=100 RC=0.45 CJE=558P CJC=112P TF=5.95U)
.ENDS
**********
*SYM=SCR
*SRC=EC103B;EC103B;SCRs;TECCOR; 200V 0.8A 
.SUBCKT EC103B   1 2 3
*    TERMINALS:  A G K
QP  6 4 1  POUT OFF
QN  4 6 5  NOUT OFF
RF  6 4    400K
RR  1 4    267K
RGK 6 5    240
RG  2 6    9.09
RK  3 5    0.112
DF  6 4    ZF
DR  1 4    ZR
DGK 6 5    ZGK
.MODEL ZF   D (IS=3.2E-16 IBV=100U BV=200)
.MODEL ZR   D (IS=3.2E-16 IBV=100U BV=200)
.MODEL ZGK  D (IS=3.2E-16 IBV=100U BV=5)
.MODEL POUT PNP (IS=320F BF=1 CJE=112P TF=85U)
.MODEL NOUT NPN (IS=320F BF=100 RC=0.45 CJE=558P CJC=112P TF=5.95U)
.ENDS
**********
*SYM=SCR
*SRC=EC103C;EC103C;SCRs;TECCOR; 300V 0.8A 
.SUBCKT EC103C   1 2 3
*    TERMINALS:  A G K
QP  6 4 1  POUT OFF
QN  4 6 5  NOUT OFF
RF  6 4    600K
RR  1 4    400K
RGK 6 5    240
RG  2 6    9.09
RK  3 5    0.112
DF  6 4    ZF
DR  1 4    ZR
DGK 6 5    ZGK
.MODEL ZF   D (IS=3.2E-16 IBV=100U BV=300)
.MODEL ZR   D (IS=3.2E-16 IBV=100U BV=300)
.MODEL ZGK  D (IS=3.2E-16 IBV=100U BV=5)
.MODEL POUT PNP (IS=320F BF=1 CJE=112P TF=85U)
.MODEL NOUT NPN (IS=320F BF=100 RC=0.45 CJE=558P CJC=112P TF=5.95U)
.ENDS
**********
*SYM=SCR
*SRC=EC103D;EC103D;SCRs;TECCOR; 400V 0.8A 
.SUBCKT EC103D   1 2 3
*    TERMINALS:  A G K
QP  6 4 1  POUT OFF
QN  4 6 5  NOUT OFF
RF  6 4    800K
RR  1 4    533K
RGK 6 5    240
RG  2 6    9.09
RK  3 5    0.112
DF  6 4    ZF
DR  1 4    ZR
DGK 6 5    ZGK
.MODEL ZF   D (IS=3.2E-16 IBV=100U BV=400)
.MODEL ZR   D (IS=3.2E-16 IBV=100U BV=400)
.MODEL ZGK  D (IS=3.2E-16 IBV=100U BV=5)
.MODEL POUT PNP (IS=320F BF=1 CJE=112P TF=85U)
.MODEL NOUT NPN (IS=320F BF=100 RC=0.45 CJE=558P CJC=112P TF=5.95U)
.ENDS
**********
*SYM=SCR
*SRC=EC103E;EC103E;SCRs;TECCOR; 500V 0.8A 
.SUBCKT EC103E   1 2 3
*    TERMINALS:  A G K
QP  6 4 1  POUT OFF
QN  4 6 5  NOUT OFF
RF  6 4    1MEG
RR  1 4    666K
RGK 6 5    240
RG  2 6    9.09
RK  3 5    0.112
DF  6 4    ZF
DR  1 4    ZR
DGK 6 5    ZGK
.MODEL ZF   D (IS=3.2E-16 IBV=100U BV=500)
.MODEL ZR   D (IS=3.2E-16 IBV=100U BV=500)
.MODEL ZGK  D (IS=3.2E-16 IBV=100U BV=5)
.MODEL POUT PNP (IS=320F BF=1 CJE=168P TF=85U)
.MODEL NOUT NPN (IS=320F BF=100 RC=0.45 CJE=838P CJC=168P TF=5.95U)
.ENDS
**********
*SYM=SCR
*SRC=EC103M;EC103M;SCRs;TECCOR; 600V 0.8A 
.SUBCKT EC103M   1 2 3
*    TERMINALS:  A G K
QP  6 4 1  POUT OFF
QN  4 6 5  NOUT OFF
RF  6 4    600K
RR  1 4    400K
RGK 6 5    240
RG  2 6    9.09
RK  3 5    0.112
DF  6 4    ZF
DR  1 4    ZR
DGK 6 5    ZGK
.MODEL ZF   D (IS=3.2E-16 IBV=200U BV=600)
.MODEL ZR   D (IS=3.2E-16 IBV=200U BV=600)
.MODEL ZGK  D (IS=3.2E-16 IBV=200U BV=5)
.MODEL POUT PNP (IS=320F BF=1 CJE=223P TF=85U)
.MODEL NOUT NPN (IS=320F BF=100 RC=0.45 CJE=1.12N CJC=223P TF=5.95U)
.ENDS
**********
*SYM=SCR
*SRC=EC103A1;EC103A1;SCRs;TECCOR; 100V 0.8A 
.SUBCKT EC103A1  1 2 3
*    TERMINALS:  A G K
QP  6 4 1  POUT OFF
QN  4 6 5  NOUT OFF
RF  6 4    200K
RR  1 4    133K
RGK 6 5    240
RG  2 6    9.09
RK  3 5    0.112
DF  6 4    ZF
DR  1 4    ZR
DGK 6 5    ZGK
.MODEL ZF   D (IS=3.2E-16 IBV=100U BV=100)
.MODEL ZR   D (IS=3.2E-16 IBV=100U BV=100)
.MODEL ZGK  D (IS=3.2E-16 IBV=100U BV=5)
.MODEL POUT PNP (IS=320F BF=1 CJE=168P TF=102U)
.MODEL NOUT NPN (IS=320F BF=100 RC=0.45 CJE=838P CJC=168P TF=3.4U)
.ENDS
**********
*SYM=SCR
*SRC=EC103B1;EC103B1;SCRs;TECCOR; 200V 0.8A 
.SUBCKT EC103B1  1 2 3
*    TERMINALS:  A G K
QP  6 4 1  POUT OFF
QN  4 6 5  NOUT OFF
RF  6 4    400K
RR  1 4    267K
RGK 6 5    240
RG  2 6    9.09
RK  3 5    0.112
DF  6 4    ZF
DR  1 4    ZR
DGK 6 5    ZGK
.MODEL ZF   D (IS=3.2E-16 IBV=100U BV=200)
.MODEL ZR   D (IS=3.2E-16 IBV=100U BV=200)
.MODEL ZGK  D (IS=3.2E-16 IBV=100U BV=5)
.MODEL POUT PNP (IS=320F BF=1 CJE=168P TF=102U)
.MODEL NOUT NPN (IS=320F BF=100 RC=0.45 CJE=838P CJC=168P TF=3.4U)
.ENDS
**********
*SYM=SCR
*SRC=EC103C1;EC103C1;SCRs;TECCOR; 300V 0.8A 
.SUBCKT EC103C1  1 2 3
*    TERMINALS:  A G K
QP  6 4 1  POUT OFF
QN  4 6 5  NOUT OFF
RF  6 4    600K
RR  1 4    400K
RGK 6 5    240
RG  2 6    9.09
RK  3 5    0.112
DF  6 4    ZF
DR  1 4    ZR
DGK 6 5    ZGK
.MODEL ZF   D (IS=3.2E-16 IBV=100U BV=300)
.MODEL ZR   D (IS=3.2E-16 IBV=100U BV=300)
.MODEL ZGK  D (IS=3.2E-16 IBV=100U BV=5)
.MODEL POUT PNP (IS=320F BF=1 CJE=168P TF=102U)
.MODEL NOUT NPN (IS=320F BF=100 RC=0.45 CJE=838P CJC=168P TF=3.4U)
.ENDS
**********
*SYM=SCR
*SRC=EC103D1;EC103D1;SCRs;TECCOR; 400V 0.8A 
.SUBCKT EC103D1  1 2 3
*    TERMINALS:  A G K
QP  6 4 1  POUT OFF
QN  4 6 5  NOUT OFF
RF  6 4    800K
RR  1 4    533K
RGK 6 5    240
RG  2 6    9.09
RK  3 5    0.112
DF  6 4    ZF
DR  1 4    ZR
DGK 6 5    ZGK
.MODEL ZF   D (IS=3.2E-16 IBV=100U BV=400)
.MODEL ZR   D (IS=3.2E-16 IBV=100U BV=400)
.MODEL ZGK  D (IS=3.2E-16 IBV=100U BV=5)
.MODEL POUT PNP (IS=320F BF=1 CJE=168P TF=102U)
.MODEL NOUT NPN (IS=320F BF=100 RC=0.45 CJE=838P CJC=168P TF=3.4U)
.ENDS
**********
*SYM=SCR
*SRC=EC103E1;EC103E1;SCRs;TECCOR; 500V 0.8A 
.SUBCKT EC103E1  1 2 3
*    TERMINALS:  A G K
QP  6 4 1  POUT OFF
QN  4 6 5  NOUT OFF
RF  6 4    1MEG
RR  1 4    666K
RGK 6 5    240
RG  2 6    9.09
RK  3 5    0.112
DF  6 4    ZF
DR  1 4    ZR
DGK 6 5    ZGK
.MODEL ZF   D (IS=3.2E-16 IBV=100U BV=500)
.MODEL ZR   D (IS=3.2E-16 IBV=100U BV=500)
.MODEL ZGK  D (IS=3.2E-16 IBV=100U BV=5)
.MODEL POUT PNP (IS=320F BF=1 CJE=223P TF=102U)
.MODEL NOUT NPN (IS=320F BF=100 RC=0.45 CJE=1.12N CJC=223P TF=3.4U)
.ENDS
**********
*SYM=SCR
*SRC=EC103M1;EC103M1;SCRs;TECCOR; 600V 0.8A 
.SUBCKT EC103M1  1 2 3
*    TERMINALS:  A G K
QP  6 4 1  POUT OFF
QN  4 6 5  NOUT OFF
RF  6 4    600K
RR  1 4    400K
RGK 6 5    240
RG  2 6    9.09
RK  3 5    0.112
DF  6 4    ZF
DR  1 4    ZR
DGK 6 5    ZGK
.MODEL ZF   D (IS=3.2E-16 IBV=200U BV=600)
.MODEL ZR   D (IS=3.2E-16 IBV=200U BV=600)
.MODEL ZGK  D (IS=3.2E-16 IBV=200U BV=5)
.MODEL POUT PNP (IS=320F BF=1 CJE=335P TF=102U)
.MODEL NOUT NPN (IS=320F BF=100 RC=0.45 CJE=1.68N CJC=335P TF=3.4U)
.ENDS
**********
*SYM=SCR
*SRC=EC103A2;EC103A2;SCRs;TECCOR; 100V 0.8A 
.SUBCKT EC103A2  1 2 3
*    TERMINALS:  A G K
QP  6 4 1  POUT OFF
QN  4 6 5  NOUT OFF
RF  6 4    200K
RR  1 4    133K
RGK 6 5    240
RG  2 6    9.09
RK  3 5    0.112
DF  6 4    ZF
DR  1 4    ZR
DGK 6 5    ZGK
.MODEL ZF   D (IS=3.2E-16 IBV=100U BV=100)
.MODEL ZR   D (IS=3.2E-16 IBV=100U BV=100)
.MODEL ZGK  D (IS=3.2E-16 IBV=100U BV=5)
.MODEL POUT PNP (IS=320F BF=1 CJE=134P TF=102U)
.MODEL NOUT NPN (IS=320F BF=100 RC=0.45 CJE=670P CJC=134P TF=5.1U)
.ENDS
**********
*SYM=SCR
*SRC=EC103B2;EC103B2;SCRs;TECCOR; 200V 0.8A 
.SUBCKT EC103B2  1 2 3
*    TERMINALS:  A G K
QP  6 4 1  POUT OFF
QN  4 6 5  NOUT OFF
RF  6 4    400K
RR  1 4    267K
RGK 6 5    240
RG  2 6    9.09
RK  3 5    0.112
DF  6 4    ZF
DR  1 4    ZR
DGK 6 5    ZGK
.MODEL ZF   D (IS=3.2E-16 IBV=100U BV=200)
.MODEL ZR   D (IS=3.2E-16 IBV=100U BV=200)
.MODEL ZGK  D (IS=3.2E-16 IBV=100U BV=5)
.MODEL POUT PNP (IS=320F BF=1 CJE=134P TF=102U)
.MODEL NOUT NPN (IS=320F BF=100 RC=0.45 CJE=670P CJC=134P TF=5.1U)
.ENDS
**********
*SYM=SCR
*SRC=EC103C2;EC103C2;SCRs;TECCOR; 300V 0.8A 
.SUBCKT EC103C2  1 2 3
*    TERMINALS:  A G K
QP  6 4 1  POUT OFF
QN  4 6 5  NOUT OFF
RF  6 4    600K
RR  1 4    400K
RGK 6 5    240
RG  2 6    9.09
RK  3 5    0.112
DF  6 4    ZF
DR  1 4    ZR
DGK 6 5    ZGK
.MODEL ZF   D (IS=3.2E-16 IBV=100U BV=300)
.MODEL ZR   D (IS=3.2E-16 IBV=100U BV=300)
.MODEL ZGK  D (IS=3.2E-16 IBV=100U BV=5)
.MODEL POUT PNP (IS=320F BF=1 CJE=134P TF=102U)
.MODEL NOUT NPN (IS=320F BF=100 RC=0.45 CJE=670P CJC=134P TF=5.1U)
.ENDS
**********
*SYM=SCR
*SRC=EC103D2;EC103D2;SCRs;TECCOR; 400V 0.8A 
.SUBCKT EC103D2  1 2 3
*    TERMINALS:  A G K
QP  6 4 1  POUT OFF
QN  4 6 5  NOUT OFF
RF  6 4    800K
RR  1 4    533K
RGK 6 5    240
RG  2 6    9.09
RK  3 5    0.112
DF  6 4    ZF
DR  1 4    ZR
DGK 6 5    ZGK
.MODEL ZF   D (IS=3.2E-16 IBV=100U BV=400)
.MODEL ZR   D (IS=3.2E-16 IBV=100U BV=400)
.MODEL ZGK  D (IS=3.2E-16 IBV=100U BV=5)
.MODEL POUT PNP (IS=320F BF=1 CJE=134P TF=102U)
.MODEL NOUT NPN (IS=320F BF=100 RC=0.45 CJE=670P CJC=134P TF=5.1U)
.ENDS
**********
*SYM=SCR
*SRC=EC103E2;EC103E2;SCRs;TECCOR; 500V 0.8A 
.SUBCKT EC103E2  1 2 3
*    TERMINALS:  A G K
QP  6 4 1  POUT OFF
QN  4 6 5  NOUT OFF
RF  6 4    1MEG
RR  1 4    666K
RGK 6 5    240
RG  2 6    9.09
RK  3 5    0.112
DF  6 4    ZF
DR  1 4    ZR
DGK 6 5    ZGK
.MODEL ZF   D (IS=3.2E-16 IBV=100U BV=500)
.MODEL ZR   D (IS=3.2E-16 IBV=100U BV=500)
.MODEL ZGK  D (IS=3.2E-16 IBV=100U BV=5)
.MODEL POUT PNP (IS=320F BF=1 CJE=168P TF=102U)
.MODEL NOUT NPN (IS=320F BF=100 RC=0.45 CJE=838P CJC=168P TF=5.1U)
.ENDS
**********
*SYM=SCR
*SRC=EC103M2;EC103M2;SCRs;TECCOR; 600V 0.8A 
.SUBCKT EC103M2  1 2 3
*    TERMINALS:  A G K
QP  6 4 1  POUT OFF
QN  4 6 5  NOUT OFF
RF  6 4    600K
RR  1 4    400K
RGK 6 5    240
RG  2 6    9.09
RK  3 5    0.112
DF  6 4    ZF
DR  1 4    ZR
DGK 6 5    ZGK
.MODEL ZF   D (IS=3.2E-16 IBV=200U BV=600)
.MODEL ZR   D (IS=3.2E-16 IBV=200U BV=600)
.MODEL ZGK  D (IS=3.2E-16 IBV=200U BV=5)
.MODEL POUT PNP (IS=320F BF=1 CJE=335P TF=102U)
.MODEL NOUT NPN (IS=320F BF=100 RC=0.45 CJE=1.68N CJC=335P TF=5.1U)
.ENDS
**********
*SYM=SCR
*SRC=EC103A3;EC103A3;SCRs;TECCOR; 100V 0.8A 
.SUBCKT EC103A3  1 2 3
*    TERMINALS:  A G K
QP  6 4 1  POUT OFF
QN  4 6 5  NOUT OFF
RF  6 4    200K
RR  1 4    133K
RGK 6 5    150
RG  2 6    9.09
RK  3 5    0.112
DF  6 4    ZF
DR  1 4    ZR
DGK 6 5    ZGK
.MODEL ZF   D (IS=3.2E-16 IBV=100U BV=100)
.MODEL ZR   D (IS=3.2E-16 IBV=100U BV=100)
.MODEL ZGK  D (IS=3.2E-16 IBV=100U BV=5)
.MODEL POUT PNP (IS=320F BF=1 CJE=134P TF=76.5U)
.MODEL NOUT NPN (IS=320F BF=100 RC=0.45 CJE=670P CJC=134P TF=8.5U)
.ENDS
**********
*SYM=SCR
*SRC=EC103B3;EC103B3;SCRs;TECCOR; 200V 0.8A 
.SUBCKT EC103B3  1 2 3
*    TERMINALS:  A G K
QP  6 4 1  POUT OFF
QN  4 6 5  NOUT OFF
RF  6 4    400K
RR  1 4    267K
RGK 6 5    150
RG  2 6    9.09
RK  3 5    0.112
DF  6 4    ZF
DR  1 4    ZR
DGK 6 5    ZGK
.MODEL ZF   D (IS=3.2E-16 IBV=100U BV=200)
.MODEL ZR   D (IS=3.2E-16 IBV=100U BV=200)
.MODEL ZGK  D (IS=3.2E-16 IBV=100U BV=5)
.MODEL POUT PNP (IS=320F BF=1 CJE=134P TF=76.5U)
.MODEL NOUT NPN (IS=320F BF=100 RC=0.45 CJE=670P CJC=134P TF=8.5U)
.ENDS
**********
*SYM=SCR
*SRC=EC103C3;EC103C3;SCRs;TECCOR; 300V 0.8A 
.SUBCKT EC103C3  1 2 3
*    TERMINALS:  A G K
QP  6 4 1  POUT OFF
QN  4 6 5  NOUT OFF
RF  6 4    600K
RR  1 4    400K
RGK 6 5    150
RG  2 6    9.09
RK  3 5    0.112
DF  6 4    ZF
DR  1 4    ZR
DGK 6 5    ZGK
.MODEL ZF   D (IS=3.2E-16 IBV=100U BV=300)
.MODEL ZR   D (IS=3.2E-16 IBV=100U BV=300)
.MODEL ZGK  D (IS=3.2E-16 IBV=100U BV=5)
.MODEL POUT PNP (IS=320F BF=1 CJE=134P TF=76.5U)
.MODEL NOUT NPN (IS=320F BF=100 RC=0.45 CJE=670P CJC=134P TF=8.5U)
.ENDS
**********
*SYM=SCR
*SRC=EC103D3;EC103D3;SCRs;TECCOR; 400V 0.8A 
.SUBCKT EC103D3  1 2 3
*    TERMINALS:  A G K
QP  6 4 1  POUT OFF
QN  4 6 5  NOUT OFF
RF  6 4    800K
RR  1 4    533K
RGK 6 5    150
RG  2 6    9.09
RK  3 5    0.112
DF  6 4    ZF
DR  1 4    ZR
DGK 6 5    ZGK
.MODEL ZF   D (IS=3.2E-16 IBV=100U BV=400)
.MODEL ZR   D (IS=3.2E-16 IBV=100U BV=400)
.MODEL ZGK  D (IS=3.2E-16 IBV=100U BV=5)
.MODEL POUT PNP (IS=320F BF=1 CJE=134P TF=76.5U)
.MODEL NOUT NPN (IS=320F BF=100 RC=0.45 CJE=670P CJC=134P TF=8.5U)
.ENDS
**********
*SYM=SCR
*SRC=EC103E3;EC103E3;SCRs;TECCOR; 500V 0.8A 
.SUBCKT EC103E3  1 2 3
*    TERMINALS:  A G K
QP  6 4 1  POUT OFF
QN  4 6 5  NOUT OFF
RF  6 4    1MEG
RR  1 4    666K
RGK 6 5    150
RG  2 6    9.09
RK  3 5    0.112
DF  6 4    ZF
DR  1 4    ZR
DGK 6 5    ZGK
.MODEL ZF   D (IS=3.2E-16 IBV=100U BV=500)
.MODEL ZR   D (IS=3.2E-16 IBV=100U BV=500)
.MODEL ZGK  D (IS=3.2E-16 IBV=100U BV=5)
.MODEL POUT PNP (IS=320F BF=1 CJE=179P TF=76.5U)
.MODEL NOUT NPN (IS=320F BF=100 RC=0.45 CJE=893P CJC=179P TF=8.5U)
.ENDS
**********
*SYM=SCR
*SRC=EC103M3;EC103M3;SCRs;TECCOR; 600V 0.8A 
.SUBCKT EC103M3  1 2 3
*    TERMINALS:  A G K
QP  6 4 1  POUT OFF
QN  4 6 5  NOUT OFF
RF  6 4    600K
RR  1 4    400K
RGK 6 5    150
RG  2 6    9.09
RK  3 5    0.112
DF  6 4    ZF
DR  1 4    ZR
DGK 6 5    ZGK
.MODEL ZF   D (IS=3.2E-16 IBV=200U BV=600)
.MODEL ZR   D (IS=3.2E-16 IBV=200U BV=600)
.MODEL ZGK  D (IS=3.2E-16 IBV=200U BV=5)
.MODEL POUT PNP (IS=320F BF=1 CJE=268P TF=76.5U)
.MODEL NOUT NPN (IS=320F BF=100 RC=0.45 CJE=1.34N CJC=268P TF=8.5U)
.ENDS
**********
*SYM=SCR
*SRC=EC113A;EC113A;SCRs;TECCOR; 100V 0.8A 
.SUBCKT EC113A   1 2 3
*    TERMINALS:  A G K
QP  6 4 1  POUT OFF
QN  4 6 5  NOUT OFF
RF  6 4    100K
RR  1 4    66.7K
RGK 6 5    80
RG  2 6    9.09
RK  3 5    0.112
DF  6 4    ZF
DR  1 4    ZR
DGK 6 5    ZGK
.MODEL ZF   D (IS=3.2E-16 IBV=200U BV=100)
.MODEL ZR   D (IS=3.2E-16 IBV=200U BV=100)
.MODEL ZGK  D (IS=3.2E-16 IBV=200U BV=5)
.MODEL POUT PNP (IS=320F BF=1 CJE=335P TF=51U)
.MODEL NOUT NPN (IS=320F BF=100 RC=0.45 CJE=1.68N CJC=335P TF=6.8U)
.ENDS
**********
*SYM=SCR
*SRC=EC113B;EC113B;SCRs;TECCOR; 200V 0.8A 
.SUBCKT EC113B   1 2 3
*    TERMINALS:  A G K
QP  6 4 1  POUT OFF
QN  4 6 5  NOUT OFF
RF  6 4    200K
RR  1 4    133K
RGK 6 5    80
RG  2 6    9.09
RK  3 5    0.112
DF  6 4    ZF
DR  1 4    ZR
DGK 6 5    ZGK
.MODEL ZF   D (IS=3.2E-16 IBV=200U BV=200)
.MODEL ZR   D (IS=3.2E-16 IBV=200U BV=200)
.MODEL ZGK  D (IS=3.2E-16 IBV=200U BV=5)
.MODEL POUT PNP (IS=320F BF=1 CJE=335P TF=51U)
.MODEL NOUT NPN (IS=320F BF=100 RC=0.45 CJE=1.68N CJC=335P TF=6.8U)
.ENDS
**********
*SYM=SCR
*SRC=EC113C;EC113C;SCRs;TECCOR; 300V 0.8A 
.SUBCKT EC113C   1 2 3
*    TERMINALS:  A G K
QP  6 4 1  POUT OFF
QN  4 6 5  NOUT OFF
RF  6 4    300K
RR  1 4    200K
RGK 6 5    80
RG  2 6    9.09
RK  3 5    0.112
DF  6 4    ZF
DR  1 4    ZR
DGK 6 5    ZGK
.MODEL ZF   D (IS=3.2E-16 IBV=200U BV=300)
.MODEL ZR   D (IS=3.2E-16 IBV=200U BV=300)
.MODEL ZGK  D (IS=3.2E-16 IBV=200U BV=5)
.MODEL POUT PNP (IS=320F BF=1 CJE=335P TF=51U)
.MODEL NOUT NPN (IS=320F BF=100 RC=0.45 CJE=1.68N CJC=335P TF=6.8U)
.ENDS
**********
*SYM=SCR
*SRC=EC113D;EC113D;SCRs;TECCOR; 400V 0.8A 
.SUBCKT EC113D   1 2 3
*    TERMINALS:  A G K
QP  6 4 1  POUT OFF
QN  4 6 5  NOUT OFF
RF  6 4    400K
RR  1 4    267K
RGK 6 5    80
RG  2 6    9.09
RK  3 5    0.112
DF  6 4    ZF
DR  1 4    ZR
DGK 6 5    ZGK
.MODEL ZF   D (IS=3.2E-16 IBV=200U BV=400)
.MODEL ZR   D (IS=3.2E-16 IBV=200U BV=400)
.MODEL ZGK  D (IS=3.2E-16 IBV=200U BV=5)
.MODEL POUT PNP (IS=320F BF=1 CJE=335P TF=51U)
.MODEL NOUT NPN (IS=320F BF=100 RC=0.45 CJE=1.68N CJC=335P TF=6.8U)
.ENDS
**********
*SYM=SCR
*SRC=EC113E;EC113E;SCRs;TECCOR; 500V 0.8A 
.SUBCKT EC113E   1 2 3
*    TERMINALS:  A G K
QP  6 4 1  POUT OFF
QN  4 6 5  NOUT OFF
RF  6 4    500K
RR  1 4    333K
RGK 6 5    80
RG  2 6    9.09
RK  3 5    0.112
DF  6 4    ZF
DR  1 4    ZR
DGK 6 5    ZGK
.MODEL ZF   D (IS=3.2E-16 IBV=200U BV=500)
.MODEL ZR   D (IS=3.2E-16 IBV=200U BV=500)
.MODEL ZGK  D (IS=3.2E-16 IBV=200U BV=5)
.MODEL POUT PNP (IS=320F BF=1 CJE=502P TF=51U)
.MODEL NOUT NPN (IS=320F BF=100 RC=0.45 CJE=2.51N CJC=502P TF=6.8U)
.ENDS
**********
*SYM=SCR
*SRC=EC113M;EC113M;SCRs;TECCOR; 600V 0.8A 
.SUBCKT EC113M   1 2 3
*    TERMINALS:  A G K
QP  6 4 1  POUT OFF
QN  4 6 5  NOUT OFF
RF  6 4    600K
RR  1 4    400K
RGK 6 5    80
RG  2 6    9.09
RK  3 5    0.112
DF  6 4    ZF
DR  1 4    ZR
DGK 6 5    ZGK
.MODEL ZF   D (IS=3.2E-16 IBV=200U BV=600)
.MODEL ZR   D (IS=3.2E-16 IBV=200U BV=600)
.MODEL ZGK  D (IS=3.2E-16 IBV=200U BV=5)
.MODEL POUT PNP (IS=320F BF=1 CJE=670P TF=51U)
.MODEL NOUT NPN (IS=320F BF=100 RC=0.45 CJE=3.35N CJC=670P TF=6.8U)
.ENDS
**********
*SYM=SCR
*SRC=EC113A3;EC113A3;SCRs;TECCOR; 100V 0.8A 
.SUBCKT EC113A3  1 2 3
*    TERMINALS:  A G K
QP  6 4 1  POUT OFF
QN  4 6 5  NOUT OFF
RF  6 4    100K
RR  1 4    66.7K
RGK 6 5    80
RG  2 6    9.09
RK  3 5    0.112
DF  6 4    ZF
DR  1 4    ZR
DGK 6 5    ZGK
.MODEL ZF   D (IS=3.2E-16 IBV=200U BV=100)
.MODEL ZR   D (IS=3.2E-16 IBV=200U BV=100)
.MODEL ZGK  D (IS=3.2E-16 IBV=200U BV=5)
.MODEL POUT PNP (IS=320F BF=1 CJE=251P TF=30.6U)
.MODEL NOUT NPN (IS=320F BF=100 RC=0.45 CJE=1.26N CJC=251P TF=8.5U)
.ENDS
**********
*SYM=SCR
*SRC=EC113B3;EC113B3;SCRs;TECCOR; 200V 0.8A 
.SUBCKT EC113B3  1 2 3
*    TERMINALS:  A G K
QP  6 4 1  POUT OFF
QN  4 6 5  NOUT OFF
RF  6 4    200K
RR  1 4    133K
RGK 6 5    80
RG  2 6    9.09
RK  3 5    0.112
DF  6 4    ZF
DR  1 4    ZR
DGK 6 5    ZGK
.MODEL ZF   D (IS=3.2E-16 IBV=200U BV=200)
.MODEL ZR   D (IS=3.2E-16 IBV=200U BV=200)
.MODEL ZGK  D (IS=3.2E-16 IBV=200U BV=5)
.MODEL POUT PNP (IS=320F BF=1 CJE=251P TF=30.6U)
.MODEL NOUT NPN (IS=320F BF=100 RC=0.45 CJE=1.26N CJC=251P TF=8.5U)
.ENDS
**********
*SYM=SCR
*SRC=EC113C3;EC113C3;SCRs;TECCOR; 300V 0.8A 
.SUBCKT EC113C3  1 2 3
*    TERMINALS:  A G K
QP  6 4 1  POUT OFF
QN  4 6 5  NOUT OFF
RF  6 4    300K
RR  1 4    200K
RGK 6 5    80
RG  2 6    9.09
RK  3 5    0.112
DF  6 4    ZF
DR  1 4    ZR
DGK 6 5    ZGK
.MODEL ZF   D (IS=3.2E-16 IBV=200U BV=300)
.MODEL ZR   D (IS=3.2E-16 IBV=200U BV=300)
.MODEL ZGK  D (IS=3.2E-16 IBV=200U BV=5)
.MODEL POUT PNP (IS=320F BF=1 CJE=251P TF=30.6U)
.MODEL NOUT NPN (IS=320F BF=100 RC=0.45 CJE=1.26N CJC=251P TF=8.5U)
.ENDS
**********
*SYM=SCR
*SRC=EC113D3;EC113D3;SCRs;TECCOR; 400V 0.8A 
.SUBCKT EC113D3  1 2 3
*    TERMINALS:  A G K
QP  6 4 1  POUT OFF
QN  4 6 5  NOUT OFF
RF  6 4    400K
RR  1 4    267K
RGK 6 5    80
RG  2 6    9.09
RK  3 5    0.112
DF  6 4    ZF
DR  1 4    ZR
DGK 6 5    ZGK
.MODEL ZF   D (IS=3.2E-16 IBV=200U BV=400)
.MODEL ZR   D (IS=3.2E-16 IBV=200U BV=400)
.MODEL ZGK  D (IS=3.2E-16 IBV=200U BV=5)
.MODEL POUT PNP (IS=320F BF=1 CJE=251P TF=30.6U)
.MODEL NOUT NPN (IS=320F BF=100 RC=0.45 CJE=1.26N CJC=251P TF=8.5U)
.ENDS
**********
*SYM=SCR
*SRC=EC113E3;EC113E3;SCRs;TECCOR; 500V 0.8A 
.SUBCKT EC113E3  1 2 3
*    TERMINALS:  A G K
QP  6 4 1  POUT OFF
QN  4 6 5  NOUT OFF
RF  6 4    500K
RR  1 4    333K
RGK 6 5    80
RG  2 6    9.09
RK  3 5    0.112
DF  6 4    ZF
DR  1 4    ZR
DGK 6 5    ZGK
.MODEL ZF   D (IS=3.2E-16 IBV=200U BV=500)
.MODEL ZR   D (IS=3.2E-16 IBV=200U BV=500)
.MODEL ZGK  D (IS=3.2E-16 IBV=200U BV=5)
.MODEL POUT PNP (IS=320F BF=1 CJE=335P TF=30.6U)
.MODEL NOUT NPN (IS=320F BF=100 RC=0.45 CJE=1.68N CJC=335P TF=8.5U)
.ENDS
**********
*SYM=SCR
*SRC=EC113M3;EC113M3;SCRs;TECCOR; 600V 0.8A 
.SUBCKT EC113M3  1 2 3
*    TERMINALS:  A G K
QP  6 4 1  POUT OFF
QN  4 6 5  NOUT OFF
RF  6 4    600K
RR  1 4    400K
RGK 6 5    80
RG  2 6    9.09
RK  3 5    0.112
DF  6 4    ZF
DR  1 4    ZR
DGK 6 5    ZGK
.MODEL ZF   D (IS=3.2E-16 IBV=200U BV=600)
.MODEL ZR   D (IS=3.2E-16 IBV=200U BV=600)
.MODEL ZGK  D (IS=3.2E-16 IBV=200U BV=5)
.MODEL POUT PNP (IS=320F BF=1 CJE=502P TF=30.6U)
.MODEL NOUT NPN (IS=320F BF=100 RC=0.45 CJE=2.51N CJC=502P TF=8.5U)
.ENDS
**********
*SYM=SCR
*SRC=2N5063;2N5063;SCRs;TECCOR; 150V 0.8A 
.SUBCKT 2N5063   1 2 3
*    TERMINALS:  A G K
QP  6 4 1  POUT OFF
QN  4 6 5  NOUT OFF
RF  6 4    300K
RR  1 4    200K
RGK 6 5    80
RG  2 6    9.09
RK  3 5    0.112
DF  6 4    ZF
DR  1 4    ZR
DGK 6 5    ZGK
.MODEL ZF   D (IS=3.2E-16 IBV=100U BV=150)
.MODEL ZR   D (IS=3.2E-16 IBV=100U BV=150)
.MODEL ZGK  D (IS=3.2E-16 IBV=100U BV=5)
.MODEL POUT PNP (IS=320F BF=1 CJE=402P TF=102U)
.MODEL NOUT NPN (IS=320F BF=100 RC=0.45 CJE=2.01N CJC=402P TF=3.74U)
.ENDS
**********
*SYM=SCR
*SRC=2N5064;2N5064;SCRs;TECCOR; 200V 0.8A 
.SUBCKT 2N5064   1 2 3
*    TERMINALS:  A G K
QP  6 4 1  POUT OFF
QN  4 6 5  NOUT OFF
RF  6 4    400K
RR  1 4    267K
RGK 6 5    80
RG  2 6    9.09
RK  3 5    0.112
DF  6 4    ZF
DR  1 4    ZR
DGK 6 5    ZGK
.MODEL ZF   D (IS=3.2E-16 IBV=100U BV=200)
.MODEL ZR   D (IS=3.2E-16 IBV=100U BV=200)
.MODEL ZGK  D (IS=3.2E-16 IBV=100U BV=5)
.MODEL POUT PNP (IS=320F BF=1 CJE=402P TF=102U)
.MODEL NOUT NPN (IS=320F BF=100 RC=0.45 CJE=2.01N CJC=402P TF=3.74U)
.ENDS
**********
*SYM=SCR
*SRC=2N6564;2N6564;SCRs;TECCOR; 300V 0.8A 
.SUBCKT 2N6564   1 2 3
*    TERMINALS:  A G K
QP  6 4 1  POUT OFF
QN  4 6 5  NOUT OFF
RF  6 4    600K
RR  1 4    400K
RGK 6 5    80
RG  2 6    9.09
RK  3 5    0.112
DF  6 4    ZF
DR  1 4    ZR
DGK 6 5    ZGK
.MODEL ZF   D (IS=3.2E-16 IBV=100U BV=300)
.MODEL ZR   D (IS=3.2E-16 IBV=100U BV=300)
.MODEL ZGK  D (IS=3.2E-16 IBV=100U BV=6)
.MODEL POUT PNP (IS=320F BF=1 CJE=402P TF=102U)
.MODEL NOUT NPN (IS=320F BF=100 RC=0.45 CJE=2.01N CJC=402P TF=3.74U)
.ENDS
**********
*SYM=SCR
*SRC=2N6565;2N6565;SCRs;TECCOR; 400V 0.8A 
.SUBCKT 2N6565   1 2 3
*    TERMINALS:  A G K
QP  6 4 1  POUT OFF
QN  4 6 5  NOUT OFF
RF  6 4    800K
RR  1 4    533K
RGK 6 5    80
RG  2 6    9.09
RK  3 5    0.112
DF  6 4    ZF
DR  1 4    ZR
DGK 6 5    ZGK
.MODEL ZF   D (IS=3.2E-16 IBV=100U BV=400)
.MODEL ZR   D (IS=3.2E-16 IBV=100U BV=400)
.MODEL ZGK  D (IS=3.2E-16 IBV=100U BV=6)
.MODEL POUT PNP (IS=320F BF=1 CJE=402P TF=102U)
.MODEL NOUT NPN (IS=320F BF=100 RC=0.45 CJE=2.01N CJC=402P TF=3.74U)
.ENDS
**********
*SYM=SCR
*SRC=TCR222;TCR222;SCRs;TECCOR; 50V 1.5A 
.SUBCKT TCR222   1 2 3
*    TERMINALS:  A G K
QP  6 4 1  POUT OFF
QN  4 6 5  NOUT OFF
RF  6 4    100K
RR  1 4    66.7K
RGK 6 5    80
RG  2 6    9.15
RK  3 5    46.7M
DF  6 4    ZF
DR  1 4    ZR
DGK 6 5    ZGK
.MODEL ZF   D (IS=6E-16 IBV=100U BV=50)
.MODEL ZR   D (IS=6E-16 IBV=100U BV=50)
.MODEL ZGK  D (IS=6E-16 IBV=100U BV=6)
.MODEL POUT PNP (IS=600F BF=1 CJE=134P TF=85U)
.MODEL NOUT NPN (IS=600F BF=100 RC=0.187 CJE=670P CJC=134P TF=5.95U)
.ENDS
**********
*SYM=SCR
*SRC=TCR223;TCR223;SCRs;TECCOR; 100V 1.5A 
.SUBCKT TCR223   1 2 3
*    TERMINALS:  A G K
QP  6 4 1  POUT OFF
QN  4 6 5  NOUT OFF
RF  6 4    200K
RR  1 4    133K
RGK 6 5    80
RG  2 6    9.15
RK  3 5    46.7M
DF  6 4    ZF
DR  1 4    ZR
DGK 6 5    ZGK
.MODEL ZF   D (IS=6E-16 IBV=100U BV=100)
.MODEL ZR   D (IS=6E-16 IBV=100U BV=100)
.MODEL ZGK  D (IS=6E-16 IBV=100U BV=6)
.MODEL POUT PNP (IS=600F BF=1 CJE=134P TF=85U)
.MODEL NOUT NPN (IS=600F BF=100 RC=0.187 CJE=670P CJC=134P TF=5.95U)
.ENDS
**********
*SYM=SCR
*SRC=TCR224;TCR224;SCRs;TECCOR; 200V 1.5A 
.SUBCKT TCR224   1 2 3
*    TERMINALS:  A G K
QP  6 4 1  POUT OFF
QN  4 6 5  NOUT OFF
RF  6 4    400K
RR  1 4    267K
RGK 6 5    80
RG  2 6    9.15
RK  3 5    46.7M
DF  6 4    ZF
DR  1 4    ZR
DGK 6 5    ZGK
.MODEL ZF   D (IS=6E-16 IBV=100U BV=200)
.MODEL ZR   D (IS=6E-16 IBV=100U BV=200)
.MODEL ZGK  D (IS=6E-16 IBV=100U BV=6)
.MODEL POUT PNP (IS=600F BF=1 CJE=168P TF=85U)
.MODEL NOUT NPN (IS=600F BF=100 RC=0.187 CJE=838P CJC=168P TF=5.95U)
.ENDS
**********
*SYM=SCR
*SRC=TCR226;TCR226;SCRs;TECCOR; 400V 1.5A 
.SUBCKT TCR226   1 2 3
*    TERMINALS:  A G K
QP  6 4 1  POUT OFF
QN  4 6 5  NOUT OFF
RF  6 4    800K
RR  1 4    533K
RGK 6 5    80
RG  2 6    9.15
RK  3 5    46.7M
DF  6 4    ZF
DR  1 4    ZR
DGK 6 5    ZGK
.MODEL ZF   D (IS=6E-16 IBV=100U BV=400)
.MODEL ZR   D (IS=6E-16 IBV=100U BV=400)
.MODEL ZGK  D (IS=6E-16 IBV=100U BV=6)
.MODEL POUT PNP (IS=600F BF=1 CJE=251P TF=85U)
.MODEL NOUT NPN (IS=600F BF=100 RC=0.187 CJE=1.26N CJC=251P TF=5.95U)
.ENDS
**********
*SYM=SCR
*SRC=TCR228;TCR228;SCRs;TECCOR; 600V 1.5A 
.SUBCKT TCR228   1 2 3
*    TERMINALS:  A G K
QP  6 4 1  POUT OFF
QN  4 6 5  NOUT OFF
RF  6 4    600K
RR  1 4    400K
RGK 6 5    80
RG  2 6    9.15
RK  3 5    46.7M
DF  6 4    ZF
DR  1 4    ZR
DGK 6 5    ZGK
.MODEL ZF   D (IS=6E-16 IBV=200U BV=600)
.MODEL ZR   D (IS=6E-16 IBV=200U BV=600)
.MODEL ZGK  D (IS=6E-16 IBV=200U BV=6)
.MODEL POUT PNP (IS=600F BF=1 CJE=335P TF=85U)
.MODEL NOUT NPN (IS=600F BF=100 RC=0.187 CJE=1.68N CJC=335P TF=5.95U)
.ENDS
**********
*SYM=SCR
*SRC=S0503LS1;S0503LS1;SCRs;TECCOR; 50V 3A 
.SUBCKT S0503LS1 1 2 3
*    TERMINALS:  A G K
QP  6 4 1  POUT OFF
QN  4 6 5  NOUT OFF
RF  6 4    100K
RR  1 4    66.7K
RGK 6 5    200
RG  2 6    9.17
RK  3 5    26.7M
DF  6 4    ZF
DR  1 4    ZR
DGK 6 5    ZGK
.MODEL ZF   D (IS=1.2F IBV=100U BV=50)
.MODEL ZR   D (IS=1.2F IBV=100U BV=50)
.MODEL ZGK  D (IS=1.2F IBV=100U BV=6)
.MODEL POUT PNP (IS=1.2P BF=1 CJE=268P TF=102U)
.MODEL NOUT NPN (IS=1.2P BF=100 RC=0.107 CJE=1.34N CJC=268P TF=5.1U)
.ENDS
**********
*SYM=SCR
*SRC=S0503LS2;S0503LS2;SCRs;TECCOR; 50V 3A 
.SUBCKT S0503LS2 1 2 3
*    TERMINALS:  A G K
QP  6 4 1  POUT OFF
QN  4 6 5  NOUT OFF
RF  6 4    100K
RR  1 4    66.7K
RGK 6 5    200
RG  2 6    9.17
RK  3 5    26.7M
DF  6 4    ZF
DR  1 4    ZR
DGK 6 5    ZGK
.MODEL ZF   D (IS=1.2F IBV=100U BV=50)
.MODEL ZR   D (IS=1.2F IBV=100U BV=50)
.MODEL ZGK  D (IS=1.2F IBV=100U BV=6)
.MODEL POUT PNP (IS=1.2P BF=1 CJE=201P TF=85U)
.MODEL NOUT NPN (IS=1.2P BF=100 RC=0.107 CJE=1.01N CJC=201P TF=6.8U)
.ENDS
**********
*SYM=SCR
*SRC=S0503LS3;S0503LS3;SCRs;TECCOR; 50V 3A 
.SUBCKT S0503LS3 1 2 3
*    TERMINALS:  A G K
QP  6 4 1  POUT OFF
QN  4 6 5  NOUT OFF
RF  6 4    100K
RR  1 4    66.7K
RGK 6 5    200
RG  2 6    9.17
RK  3 5    26.7M
DF  6 4    ZF
DR  1 4    ZR
DGK 6 5    ZGK
.MODEL ZF   D (IS=1.2F IBV=100U BV=50)
.MODEL ZR   D (IS=1.2F IBV=100U BV=50)
.MODEL ZGK  D (IS=1.2F IBV=100U BV=6)
.MODEL POUT PNP (IS=1.2P BF=1 CJE=201P TF=76.5U)
.MODEL NOUT NPN (IS=1.2P BF=100 RC=0.107 CJE=1.01N CJC=201P TF=8.5U)
.ENDS
**********
*SYM=SCR
*SRC=S1003LS1;S1003LS1;SCRs;TECCOR; 100V 3A 
.SUBCKT S1003LS1 1 2 3
*    TERMINALS:  A G K
QP  6 4 1  POUT OFF
QN  4 6 5  NOUT OFF
RF  6 4    200K
RR  1 4    133K
RGK 6 5    200
RG  2 6    9.17
RK  3 5    26.7M
DF  6 4    ZF
DR  1 4    ZR
DGK 6 5    ZGK
.MODEL ZF   D (IS=1.2F IBV=100U BV=100)
.MODEL ZR   D (IS=1.2F IBV=100U BV=100)
.MODEL ZGK  D (IS=1.2F IBV=100U BV=6)
.MODEL POUT PNP (IS=1.2P BF=1 CJE=574P TF=102U)
.MODEL NOUT NPN (IS=1.2P BF=100 RC=0.107 CJE=2.87N CJC=574P TF=5.1U)
.ENDS
**********
*SYM=SCR
*SRC=S1003LS2;S1003LS2;SCRs;TECCOR; 100V 3A 
.SUBCKT S1003LS2 1 2 3
*    TERMINALS:  A G K
QP  6 4 1  POUT OFF
QN  4 6 5  NOUT OFF
RF  6 4    200K
RR  1 4    133K
RGK 6 5    200
RG  2 6    9.17
RK  3 5    26.7M
DF  6 4    ZF
DR  1 4    ZR
DGK 6 5    ZGK
.MODEL ZF   D (IS=1.2F IBV=100U BV=100)
.MODEL ZR   D (IS=1.2F IBV=100U BV=100)
.MODEL ZGK  D (IS=1.2F IBV=100U BV=6)
.MODEL POUT PNP (IS=1.2P BF=1 CJE=402P TF=85U)
.MODEL NOUT NPN (IS=1.2P BF=100 RC=0.107 CJE=2.01N CJC=402P TF=6.8U)
.ENDS
**********
*SYM=SCR
*SRC=S1003LS3;S1003LS3;SCRs;TECCOR; 100V 3A 
.SUBCKT S1003LS3 1 2 3
*    TERMINALS:  A G K
QP  6 4 1  POUT OFF
QN  4 6 5  NOUT OFF
RF  6 4    200K
RR  1 4    133K
RGK 6 5    150
RG  2 6    9.17
RK  3 5    26.7M
DF  6 4    ZF
DR  1 4    ZR
DGK 6 5    ZGK
.MODEL ZF   D (IS=1.2F IBV=100U BV=100)
.MODEL ZR   D (IS=1.2F IBV=100U BV=100)
.MODEL ZGK  D (IS=1.2F IBV=100U BV=6)
.MODEL POUT PNP (IS=1.2P BF=1 CJE=536P TF=76.5U)
.MODEL NOUT NPN (IS=1.2P BF=100 RC=0.107 CJE=2.68N CJC=536P TF=8.5U)
.ENDS
**********
*SYM=SCR
*SRC=S2003LS1;S2003LS1;SCRs;TECCOR; 200V 3A 
.SUBCKT S2003LS1 1 2 3
*    TERMINALS:  A G K
QP  6 4 1  POUT OFF
QN  4 6 5  NOUT OFF
RF  6 4    400K
RR  1 4    267K
RGK 6 5    200
RG  2 6    9.17
RK  3 5    26.7M
DF  6 4    ZF
DR  1 4    ZR
DGK 6 5    ZGK
.MODEL ZF   D (IS=1.2F IBV=100U BV=200)
.MODEL ZR   D (IS=1.2F IBV=100U BV=200)
.MODEL ZGK  D (IS=1.2F IBV=100U BV=6)
.MODEL POUT PNP (IS=1.2P BF=1 CJE=574P TF=102U)
.MODEL NOUT NPN (IS=1.2P BF=100 RC=0.107 CJE=2.87N CJC=574P TF=5.1U)
.ENDS
**********
*SYM=SCR
*SRC=S2003LS2;S2003LS2;SCRs;TECCOR; 200V 3A 
.SUBCKT S2003LS2 1 2 3
*    TERMINALS:  A G K
QP  6 4 1  POUT OFF
QN  4 6 5  NOUT OFF
RF  6 4    400K
RR  1 4    267K
RGK 6 5    200
RG  2 6    9.17
RK  3 5    26.7M
DF  6 4    ZF
DR  1 4    ZR
DGK 6 5    ZGK
.MODEL ZF   D (IS=1.2F IBV=100U BV=200)
.MODEL ZR   D (IS=1.2F IBV=100U BV=200)
.MODEL ZGK  D (IS=1.2F IBV=100U BV=6)
.MODEL POUT PNP (IS=1.2P BF=1 CJE=402P TF=85U)
.MODEL NOUT NPN (IS=1.2P BF=100 RC=0.107 CJE=2.01N CJC=402P TF=6.8U)
.ENDS
**********
*SYM=SCR
*SRC=S2003LS3;S2003LS3;SCRs;TECCOR; 200V 3A 
.SUBCKT S2003LS3 1 2 3
*    TERMINALS:  A G K
QP  6 4 1  POUT OFF
QN  4 6 5  NOUT OFF
RF  6 4    400K
RR  1 4    267K
RGK 6 5    150
RG  2 6    9.17
RK  3 5    26.7M
DF  6 4    ZF
DR  1 4    ZR
DGK 6 5    ZGK
.MODEL ZF   D (IS=1.2F IBV=100U BV=200)
.MODEL ZR   D (IS=1.2F IBV=100U BV=200)
.MODEL ZGK  D (IS=1.2F IBV=100U BV=6)
.MODEL POUT PNP (IS=1.2P BF=1 CJE=536P TF=76.5U)
.MODEL NOUT NPN (IS=1.2P BF=100 RC=0.107 CJE=2.68N CJC=536P TF=8.5U)
.ENDS
**********
*SYM=SCR
*SRC=S4003LS1;S4003LS1;SCRs;TECCOR; 400V 3A 
.SUBCKT S4003LS1 1 2 3
*    TERMINALS:  A G K
QP  6 4 1  POUT OFF
QN  4 6 5  NOUT OFF
RF  6 4    800K
RR  1 4    533K
RGK 6 5    200
RG  2 6    9.17
RK  3 5    26.7M
DF  6 4    ZF
DR  1 4    ZR
DGK 6 5    ZGK
.MODEL ZF   D (IS=1.2F IBV=100U BV=400)
.MODEL ZR   D (IS=1.2F IBV=100U BV=400)
.MODEL ZGK  D (IS=1.2F IBV=100U BV=6)
.MODEL POUT PNP (IS=1.2P BF=1 CJE=1.01N TF=102U)
.MODEL NOUT NPN (IS=1.2P BF=100 RC=0.107 CJE=5.03N CJC=1.01N TF=5.1U)
.ENDS
**********
*SYM=SCR
*SRC=S4003LS2;S4003LS2;SCRs;TECCOR; 400V 3A 
.SUBCKT S4003LS2 1 2 3
*    TERMINALS:  A G K
QP  6 4 1  POUT OFF
QN  4 6 5  NOUT OFF
RF  6 4    800K
RR  1 4    533K
RGK 6 5    200
RG  2 6    9.17
RK  3 5    26.7M
DF  6 4    ZF