*********************************************************************
*  (C)  Copyright  TOSHIBA CORPORATION  2017
*  Date:             06/06/2017
*  File Name:        TK5A90E.lib
*  Part Number:      TK5A90E
*  Parameter Ver.:   Ver.2
*  Simulator:        PSpice
*  Model Call Name:  NMOS_TK5A90E
*  TNOM:             25 degree
*  Pin Assign:       1=Drain 2=Gate 3=Source
*
* Operation of this model has been verified only on the OrCAD.
*********************************************************************
.SUBCKT TK5A90E 1 2 3
M0 1 22 3 3 smsmosfet
+ L = 5e-06
+ W = 0.03
+ AD = 3e-08
+ AS = 3e-08
+ PD = 0.06
+ PS = 0.06
D0 3 1 DDS1
D1 3 1 DDS2
D2 2 10 DGS1
D3 3 10 DGS2
R2 10 2 1E+009
R3 10 3 1E+009
RG 2 22 4.0
.MODEL smsmosfet NMOS
+ LEVEL = 7
+ MOBMOD = 1
+ CAPMOD = 3
+ NOIMOD = 1
+ TOX = 1.5e-08
+ XJ = 1.5E-007
+ NCH = 1.7E+017
+ NGATE = 0
+ RSH = 0
+ TNOM = 25
+ VTH0 = 3.52
+ VOFF = -0.02
+ NFACTOR = 6
+ U0 = 5834.2879
+ K1 = 0.53
+ K2 = -0.0186
+ K3 = 80
+ K3B = 0
+ W0 = 2.5E-006
+ NLX = 1.74E-007
+ DVT0 = 2.2
+ DVT1 = 0.53
+ DVT2 = -0.032
+ DVT0W = 0
+ DVT1W = 5.3E+006
+ DVT2W = -0.032
+ DWG = 0
+ DWB = 0
+ UA = 2.692e-12
+ UB = 5.87E-019
+ UC = -4.65E-011
+ VSAT = 24427.4869
+ A0 = 0.15942
+ AGS = 7.7229
+ B0 = 0
+ B1 = 0
+ KETA = -0.047
+ A1 = 0
+ A2 = 1
+ DELTA = 0.0044569
+ RDSW = 63200
+ PRWG = 0
+ PRWB = 0
+ WR = 1
+ CDSC = 2.4E-004
+ CDSCD = 0
+ CDSCB = 0
+ CIT = 0
+ ETA0 = 0.08
+ ETAB = -0.07
+ DSUB = 0.56
+ PCLM = 1.9274
+ PDIBLC1 = 0.39
+ PDIBLC2 = 0.005
+ PDIBLCB = 0
+ DROUT = 0.56
+ PSCBE1 = 4.24E+008
+ PSCBE2 = 1E-009
+ PVAG = 0
+ ALPHA0 = 0
+ ALPHA1 = 0
+ BETA0 = 30
+ NJ = 1
+ JS = 1.5e-05
+ XPART = 0
+ CGSO = 3.14e-08
+ CGDO = 1e-11
+ CGBO = 0
+ CGDL = 2.77e-08
+ CGSL = 2.4e-10
+ CKAPPA = 0.9
+ CF = 0
+ CLC = 1E-007
+ CLE = 0.6
+ VOFFCV = 0
+ NOFF = 1
+ DLC = 0
+ ACDE = 1
+ MOIN = 15
+ CJ = 0
+ CJSW = 1E-012
+ CJSWG = 1E-012
+ PB = 1
+ PBSW = 1
+ PBSWG = 1
+ MJ = 0.5
+ MJSW = 0.33
+ MJSWG = 0.33
+ AF = 1
+ EF = 1
+ KF = 0
+ UTE = -0.1
+ KT1 = -2.67
+ KT1L = 0
+ KT2 = 0.022
+ UA1 = 4.31E-009
+ UB1 = -7.61E-018
+ UC1 = -5.6E-011
+ AT = 26000
+ PRT = 145000
+ XTI = 3
+ TCJ = 0
+ TPB = 0
+ TCJSW = 0
+ TPBSW = 0
+ TCJSWG = 0
+ TPBSWG = 0
+ DWC = 0.00393
.MODEL DDS1 D
+ TNOM = 25
+ IS = 5.3352e-13
+ RS = 0.032677
+ N = 1.0713
+ CJO = 1.3e-09
+ VJ = 0.8
+ M = 0.8
+ XTI = 3
+ TT = 2.01e-06
+ BV = 900
+ IBV = 0.01
.MODEL DDS2 D
+ TNOM = 25
+ IS = 5.3352e-13
+ RS = 0.032677
+ N = 1.0713
+ CJO = 1E-15
+ VJ = 0.7
+ M = 0.3
+ XTI = 3
+ TT = 2.01e-06
.MODEL DGS1 D
+ TNOM = 25
+ IS = 1E-015
.MODEL DGS2 D
+ TNOM = 25
+ IS = 1E-015
.ENDS


