*********************************************************************
*  TOSHIBA CORPORATION SEMICONDUCTOR & STORAGE PRODUCTS COMPANY
*  Date                 : 10/02/2015
*  File name            : TK7A90E.lib
*  Part Number          : TK7A90E
*  Parameter ver.       : Ver.1
*  Simulator            : PSPICE
*  Model call name      : NMOS_TK7A90E
*  TNOM                 : 25 degree
*********************************************************************

.SUBCKT TK7A90E 1 2 3
M0 1 22 3 3
+ smsmosfet
+ L = 5E-006
+ W = 0.05
+ AD = 2e-08
+ AS = 2e-08
+ PD = 0.1
+ PS = 0.1
D0 3 1
+ DDS1
D1 3 1
+ DDS2
D2 2 10
+ DGS1
D3 3 10
+ DGS2
R1 10 3 1E+009
R2 10 2 1E+009
RG 2 22 4
.MODEL smsmosfet NMOS
+ LEVEL = 7
+ MOBMOD = 1
+ CAPMOD = 3
+ NOIMOD = 1
+ TOX = 1.5E-008
+ XJ = 1.5E-007
+ NCH = 1.7E+017
+ NGATE = 0
+ RSH = 0
+ TNOM = 25
+ VTH0 = 3.65
+ VOFF = -0.08
+ NFACTOR = 10.5
+ U0 = 3631.7865
+ K1 = 0.5
+ K2 = 0
+ K3 = 80
+ K3B = 0
+ W0 = 2.5E-006
+ NLX = 1.74E-007
+ DVT0 = 2.2
+ DVT1 = 0.53
+ DVT2 = -0.032
+ DVT0W = 0
+ DVT1W = 5.3E+006
+ DVT2W = -0.032
+ DWG = 0
+ DWB = 0
+ UA = 1.1464e-09
+ UB = 5.87E-019
+ UC = -4.65E-011
+ VSAT = 27332.48
+ A0 = 0.081363
+ AGS = 17.4993
+ B0 = 0
+ B1 = 0
+ KETA = -0.047
+ A1 = 0
+ A2 = 1
+ DELTA = 0.0015546
+ RDSW = 68700
+ PRWG = 0
+ PRWB = 0
+ WR = 1
+ CDSC = 2.4E-004
+ CDSCD = 0
+ CDSCB = 0
+ CIT = 0
+ ETA0 = 0.08
+ ETAB = -0.07
+ DSUB = 0.56
+ PCLM = 8.8309e-05
+ PDIBLC1 = 0.39
+ PDIBLC2 = 0.0061136
+ PDIBLCB = 0
+ DROUT = 0.56
+ PSCBE1 = 4.24E+008
+ PSCBE2 = 1E-009
+ PVAG = 0
+ ALPHA0 = 0
+ ALPHA1 = 0
+ BETA0 = 30
+ NJ = 1
+ JS = 6.55e-05
+ XPART = 0
+ CGSO = 1.2747e-08
+ CGDO = 7.9262e-13
+ CGBO = 0
+ CGDL = 2.9362e-08
+ CGSL = 5.2838e-09
+ CKAPPA = 0.5725
+ CF = 0
+ CLC = 1E-007
+ CLE = 0.6
+ VOFFCV = 0
+ NOFF = 1
+ DLC = 0
+ ACDE = 1
+ MOIN = 15
+ CJ = 0.087902
+ CJSW = 1E-012
+ CJSWG = 1E-012
+ PB = 9.8376
+ PBSW = 1
+ PBSWG = 1
+ MJ = 3.294
+ MJSW = 0.33
+ MJSWG = 0.33
+ AF = 1
+ EF = 1
+ KF = 0
+ UTE = -0.11
+ KT1 = -2.5
+ KT1L = 0
+ KT2 = 0.022
+ UA1 = 4.31E-009
+ UB1 = -7.61E-018
+ UC1 = -5.6E-011
+ AT = 3.3E+004
+ PRT = 160000
+ XTI = 3
+ TCJ = 0
+ TPB = 0
+ TCJSW = 0
+ TPBSW = 0
+ TCJSWG = 0
+ TPBSWG = 0
+ DWC = 0.0011363
.MODEL DDS1 D
+ TNOM = 25
+ IS = 2.4719e-14
+ RS = 0.031762
+ N = 0.94379
+ CJO = 1.9647e-12
+ VJ = 0.44948
+ M = 0.10349
+ XTI = 3
+ BV = 900
+ IBV = 0.01
.MODEL DDS2 D
+ TNOM = 25
+ IS = 2.4719e-14
+ RS = 0.031762
+ N = 0.94379
+ CJO = 3.2356e-12
+ VJ = 0.50987
+ M = 0.38872
+ XTI = 3
.MODEL DGS1 D
+ TNOM = 25
+ IS = 1E-015
.MODEL DGS2 D
+ TNOM = 25
+ IS = 1E-015
.ENDS


