*********************************************************************
*  TOSHIBA CORPORATION SEMICONDUCTOR & STORAGE PRODUCTS COMPANY
*  Date                 : 05/12/2013
*  File name            : TK9A90E.lib
*  Part Number          : TK9A90E
*  Parameter ver.       : Ver.2
*  Simulator            : PSpice
*  Model call name      : NMOS_TK9A90E
*  TNOM                 : 25 degree
*********************************************************************

.SUBCKT TK9A90E 1 2 3
M0 1 22 3 3
+ smsmosfet
+ L = 5E-006
+ W = 0.075
+ AD = 2.5e-09
+ AS = 2.5e-09
+ PD = 0.01
+ PS = 0.01
D0 3 1
+ DDS1
D1 3 1
+ DDS2
D2 2 10
+ DGS1
D3 3 10
+ DGS2
R1 10 3 1E+009
R2 10 2 1E+009
RG 2 22 3.5
.MODEL smsmosfet NMOS
+ LEVEL = 7
+ VERSION = 3.3
+ MOBMOD = 1
+ CAPMOD = 3
+ NOIMOD = 1
+ TOX = 1.5E-008
+ XJ = 1.5E-007
+ NCH = 1.7E+017
+ NGATE = 0
+ RSH = 0
+ TNOM = 25
+ VTH0 = 3.3115
+ VOFF = -0.08
+ NFACTOR = 7.9328
+ U0 = 4999.8692
+ K1 = 0.53
+ K2 = -0.0186
+ K3 = 80
+ K3B = 0
+ W0 = 2.5E-006
+ NLX = 1.74E-007
+ DVT0 = 2.2
+ DVT1 = 0.53
+ DVT2 = -0.032
+ DVT0W = 0
+ DVT1W = 5.3E+006
+ DVT2W = -0.032
+ DWG = 0
+ DWB = 0
+ UA = 4.868e-11
+ UB = 5.87E-019
+ UC = -4.65E-011
+ VSAT = 30590.8319
+ A0 = 0.075562
+ AGS = 18.9648
+ B0 = 0
+ B1 = 0
+ KETA = -0.047
+ A1 = 0
+ A2 = 1
+ DELTA = 7.8125e-06
+ RDSW = 64225.1
+ PRWG = 0
+ PRWB = 0
+ WR = 1
+ CDSC = 2.4E-004
+ CDSCD = 0
+ CDSCB = 0
+ CIT = 0
+ ETA0 = 0.08
+ ETAB = -0.07
+ DSUB = 0.56
+ PCLM = 0.00050682
+ PDIBLC1 = 0.39
+ PDIBLC2 = 0.001037
+ PDIBLCB = 0
+ DROUT = 0.56
+ PSCBE1 = 4.24E+008
+ PSCBE2 = 1E-009
+ PVAG = 0
+ ALPHA0 = 0
+ ALPHA1 = 0
+ BETA0 = 30
+ NJ = 1
+ JS = 1E-004
+ XPART = 0
+ CGSO = 1.3016e-08
+ CGDO = 6.2646e-13
+ CGBO = 0
+ CGDL = 2.0246e-08
+ CGSL = 4.6971e-09
+ CKAPPA = 0.47034
+ CF = 0
+ CLC = 1E-007
+ CLE = 0.6
+ VOFFCV = 0
+ NOFF = 1
+ DLC = 0
+ ACDE = 1
+ MOIN = 15
+ CJ = 0.9981
+ CJSW = 5E-010
+ CJSWG = 5E-010
+ PB = 5.5531
+ PBSW = 1
+ PBSWG = 1
+ MJ = 2.1647
+ MJSW = 0.33
+ MJSWG = 0.33
+ AF = 1
+ EF = 1
+ KF = 0
+ UTE = -0.045804
+ KT1 = -2.6826
+ KT1L = 0
+ KT2 = 0.022
+ UA1 = 4.31E-009
+ UB1 = -7.61E-018
+ UC1 = -5.6E-011
+ AT = 3.3E+004
+ PRT = 160000
+ XTI = 3
+ TCJ = 0
+ TPB = 0
+ TCJSW = 0
+ TPBSW = 0
+ TCJSWG = 0
+ TPBSWG = 0
+ DWC = -0.0044196
.MODEL DDS1 D
+ TNOM = 25
+ IS = 8.5346e-13
+ RS = 0.027339
+ N = 0.98848
+ CJO = 9.7993e-13
+ VJ = 0.30446
+ M = 0.44682
+ XTI = 3
+ BV = 900
+ IBV = 0.01
.MODEL DDS2 D
+ TNOM = 25
+ IS = 8.5346e-13
+ RS = 0.027339
+ N = 0.98848
+ CJO = 6.8599e-11
+ VJ = 0.48607
+ M = 0.3204
+ XTI = 3
.MODEL DGS1 D
+ TNOM = 25
+ IS = 1E-014
.MODEL DGS2 D
+ TNOM = 25
+ IS = 1E-014
.ENDS
