* BEGIN MODEL TLV2460
* PINOUT ORDER +IN -IN +V -V OUT NSD
* PINOUT ORDER  3   4   6  2  1   5
* BEGIN NOTES
* MODEL TEMPERATURE RANGE IS
* -55 C TO +125 C, NOT ALL
* PARAMETERS TRACK THOSE OF
* THE REAL PART VS TEMPERATURE
* END NOTES
* BEGIN FEATURES
* OPEN LOOP GAIN AND PHASE
* AVOL DC VS RL
* INPUT OFFSET VOLTAGE
* VOS HAS TWO STEPS VS VCM
* INPUT VOLTAGE NOISE W 1/F
* INPUT CURRENT NOISE W 1/F
* INPUT BIAS CURRENT
* INPUT CAPACITANCE
* INPUT COMMON MODE VOLTAGE RANGE
* INPUT CLAMPS TO RAILS
* CMRR WITH FREQUENCY EFFECTS
* PSRR WITH FREQUENCY EFFECTS
* SLEW RATE
* 0.1 PERCENT SETTLING TIME
* SHUTDOWN
* SHUTDOWN EN / DIS DELAYS
* QUIESCENT CURRENT
* QUIESCENT CURRENT VS VOLTAGE
* QUIESCENT CURRENT VS SHUTDOWN
* RAIL TO RAIL OUTPUT STAGE
* HIGH CLOAD EFFECTS
* OUTPUT CURRENT THROUGH SUPPLIES
* OUTPUT CURRENT LIMITING
* OUTPUT CLAMPS TO RAILS
* OUTPUT SWING VS OUTPUT CURRENT
* END FEATURES
.SUBCKT TLV2460 3 4 6 2 1 5
Q1 7 8 9 QIN
Q2 10 11 12 QIN
Q3 13 14 15 QNG
Q5 16 11 17 QIP
Q6 18 19 20 QIP
Q7 21 22 23 QPG
Q12 24 25 26 QPG
Q13 27 27 28 QPG
Q14 29 29 27 QPG
Q15 26 30 28 QPG
Q17 1 26 31 QOP
Q18 32 32 33 QNG
Q19 33 33 34 QNG
Q20 24 35 36 QNG
Q21 1 24 37 QON
Q22 26 32 24 QNG
R1 13 9 5
R2 13 12 5
R3 20 21 5
R4 17 21 5
R5 36 38 500
R7 7 28 300
R8 36 16 300
R9 36 18 300
R10 35 37 100
R11 30 31 100
R12 31 6 9.33
R13 2 37 9.33
G1 24 36 39 40 -0.4E-3
R15 41 11 500
R16 39 42 10
C2 42 1 18E-12
R17 25 29 9.33
R18 36 34 9.33
D1 8 28 DD
D2 11 28 DD
D3 36 43 DD
D4 36 11 DD
D5 1 6 DD
D6 2 1 DD
V5 8 43 0
V6 44 43 0
D7 45 0 DIN
D8 46 0 DIN
I8 0 45 0.1E-3
I9 0 46 0.1E-3
E2 36 0 2 0 1
E3 28 0 6 0 1
C4 47 0 7P
C5 4 0 7P
D9 48 0 DVN
D10 49 0 DVN
I10 0 48 0.1E-3
I11 0 49 0.1E-3
E4 41 4 48 49 0.5
G2 47 41 45 46 5.5E-5
I12 6 2 0.2U
R22 2 6 1E7
E5 50 0 23 0 1
E6 51 0 36 0 1
E7 52 0 53 0 1
R30 50 54 1E6
R31 51 55 1E6
R32 52 56 1E6
R33 0 54 100
R34 0 55 100
R35 0 56 100
E10 57 3 56 0 0.3
C6 50 54 1E-12
C7 51 55 3E-12
C8 52 56 30E-12
R6 10 28 300
E11 58 57 55 0 0.2
E12 47 58 54 0 0.15
G3 39 40 10 7 2E-3
G4 39 40 16 18 2E-3
R40 39 40 8E6
E14 40 36 28 36 0.5
D11 39 28 DD
D12 36 39 DD
C9 10 7 35E-12
C10 16 18 35E-12
V11 23 28 0
V12 43 19 0.3E-3
V13 15 36 0
E16 59 40 42 39 19.3E3
R42 40 59 1E11
D13 60 61 DD
D14 62 60 DD
R43 60 61 1E11
R44 60 39 1500
M44 63 5 40 40 NEN L=3U W=300U
M45 64 65 40 40 NEN L=3U W=3000U
R132 63 28 1E4
R133 64 66 1E6
V52 66 40 1
M46 67 67 28 28 PEN L=6U W=60U
M47 5 67 28 28 PEN L=6U W=60U
I21 67 40 0.3E-9
C27 5 0 1E-12
E51 68 0 69 40 1
V53 64 69 10E-6
R134 40 69 1E12
C33 28 63 3E-15
C34 66 64 3E-15
M50 70 63 40 40 NEN L=3U W=300U
M51 65 70 40 40 NEN L=3U W=300U
R299 70 66 1E4
R300 65 66 1E4
C36 66 70 800E-12
C106 66 65 20E-12
G6 14 15 68 0 -8E-7
G7 28 32 68 0 0.43E-3
G8 28 26 68 0 1E-3
G9 24 36 68 0 1E-3
G10 25 36 68 0 0.43E-3
E52 71 40 68 0 30
E53 72 39 68 0 -30
V54 73 72 15
V55 74 71 -15
R301 71 0 1E12
R302 72 0 1E12
M52 39 74 40 75 PSW L=1.5U W=150U
M53 40 73 39 76 NSW L=1.5U
R303 75 0 1E12
R304 76 0 1E12
R305 42 1 200E6
V56 59 62 5
V57 61 59 5
R306 60 62 1E11
M55 77 78 2 2 NEN L=3U W=300U
R307 77 6 30E3
E56 78 2 68 0 1
R308 58 47 1E12
R309 57 58 1E12
R310 3 57 1E12
R311 78 2 1E12
R312 0 68 1E12
R313 22 23 1E12
R314 36 14 1E12
Q23 22 79 13 QNG
Q24 22 22 23 QPG
V58 79 36 1
E57 44 47 38 36 1
M56 38 80 81 81 MB L=100U W=100U
R315 81 23 8.5E6
E58 80 23 82 23 -20
V59 53 82 -1.1
R316 0 82 1E12
R317 0 82 1E12
R318 0 80 1E12
R319 83 53 1E3
R320 53 84 1E3
E60 84 0 47 0 1
E61 83 0 41 0 1
R321 83 84 1E12
.MODEL QPV PNP VAF=150
.MODEL QNV NPN VAF=150
.MODEL QON NPN VAF=40
.MODEL QOP PNP VAF=40
.MODEL QNG NPN
.MODEL QPG PNP
.MODEL QIN NPN BF=19E3 KF=2E-16
.MODEL QIP PNP BF=19E3 KF=2E-16
.MODEL DVN D KF=2.5E-15
.MODEL DIN D KF=8E-17
.MODEL DD D IS=1E-18
.MODEL NEN NMOS KP=200U VTO=0.5 IS=1E-18
.MODEL PEN PMOS KP=200U VTO=-0.7 IS=1E-18
.MODEL PSW PMOS KP=200U VTO=-7.5 IS=1E-18
.MODEL NSW NMOS KP=200U VTO=7.5 IS=1E-18
.MODEL MB PMOS VTO=0 KP=200U
.ENDS
* END MODEL TLV2460
