*  File     : Triac_ST_AB.LIB (corr. Alexander Bordodynov)
*  Revision : 3            
*  Date     : 16/Dec/05       

*         (c) 2005 STMicroelectronics. All rights reserved.          *
*                                                                    *
*                STMicroelectronics group of companies               *
*   Australia - Belgium - Brazil - Canada - China - Czech Republic   *
*   - France - Finland - Germany - Hong Kong - Indian - Israel       *
*   - Italy - Japan - Korea - Malaysia - Malta - Mexico - Morocco    *
*     - Singapore - Spain - Sweden - Switzerland - United Kingdom    *
*                  - United States of America                        *
*                           www.st.com                               *
**********************************************************************
*
***********************************************************************
* 				Triacs PSpice Models                  *
***********************************************************************
* Note :
*
*	This triac model simulates:
*	-Igt (the same for all quadrants) MAX of the specification
*       -Il  (the same for all quadrants) Typ of the specification
*       -Ih  (the same for both polarity) Typ of the specification
*       -VDRM
*       -VRRM
*       -(di/dt)c and (dV/dt)c parameters are simulated only if those
*        constraints exceed very higly the specified limits.
*       -Power dissipation is realistic and correspond to a typical
*        triac
*
*       All these parameters are constant, and don't vary neither 
*       with temperature nor other parameters.
*    
*       The "STANDARD" parameter switch between 
*       4 quadrants triacs (STANDARD = 1) and
*       3 quadrants triacs (STANDARD = 0.
*       The "STANDARD" parameter maintains or suppress the triggering
*       possibility of the triac in the fourth quadrant, and has
*       absolutely NO EFFECT on other parameters.
*
*
*$
.subckt Triac_ST A K G PARAMS:
+ Vdrm=400v     
+ Igt=20ma
+ Ih=6ma        
+ Rt=0.01
+ Standard=1
*
* Vdrm : Repetitive forward off-state voltage
* Ih   : Holding current 
* Igt  : Gate trigger current 
* Rt   : Dynamic on-state resistance
* Standard : Differenciation between Snubberless and Standard Triacs
* (Standard=0 => Snubberless Triacs, Standard=1 => Standard Triacs)
*
*****************
* Power circuit *
*****************
*
****************
*Switch circuit*
****************
* Q1 & Q2 Conduction
S_S3         A Plip1 positive 0 Smain
*RS_S3        positive 0 1G
D_DAK1         Plip1 Plip2 Dak 
R_Rlip         Plip1 Plip2  1k
V_Viak         Plip2 K DC 0 AC 0 
*
* Q3 & Q4 Conduction
S_S4         A Plin1 negative 0 Smain
*RS_S4        negative 0 1G
D_DKA1         Plin2 Plin1 Dak 
R_Rlin         Plin1 Plin2  1k 
V_Vika         K Plin2 DC 0 AC 0  
**************
*Gate circuit*
**************
R_Rgk         G K  10G  
D_DGKi         Pg2 G Dgk 
D_DGKd         G Pg2 Dgk 
V_Vig         Pg2 K DC 0 AC 0 
R_Rlig         G Pg2  1k  
*******************
*Interface circuit*
*******************
* positive pilot
BE_IF15OR3      0   positive  i=IF(  ( (V(CMDIG)>0.5) | (V(CMDILIH)>0.5) | (V(CMDVdrm)>0.5) ),400,0 ) Rpar=1 cpar=2.2u
* 
* negative pilot
BE_IF14OR3     0    negative  i=IF(  ( (V(CMDIG)>0.5) | (V(CMDILIHN)>0.5) | (V(CMDVdrm)>0.5) ),400,0 ) Rpar=1 cpar=2.2u
*
* 
******************
* Pilots circuit *
******************
******************
* Pilot Gate     *
******************

bE_IF1IG     0    inIG  i=IF( ABS(I(V_Vig))  > Igt ,1,0) Rpar=1 cpar=1n
CbE_IF1IG        inIG 0 1N
E_MULT2MULT         CMDIG 0 VALUE {V(Q4)*V(inIG)}
bE_IF2Quadrant4     0    Q4  i=IF(((I(V_Vig)>Igt)&(V(A,K)<0)&(Standard==0)),0,1) Rpar=1 cpar=1n ;my
*
******************
* Pilot IHIL     *
******************
*
E_IF10IL         inIL 0 VALUE {IF( ((I(V_Viak))>2.5*Igt),1,0 )}
E_IF5IH         inIH 0 VALUE {IF( ((I(V_Viak))>(Ih/3)),1,0 )} 
*
* Flip_flop IHIL
E_IF6DIHIL         SDIHIL 0 VALUE {IF( (V(inIL)*V(inIH)+V(inIH)*(1-V(inIL))*(V(CMDILIH)) )>0.5,1,0)}
C_CIHIL         CMDILIH 0  1n  
R_RIHIL         SDIHIL CMDILIH  1K  
R_RIHIL2         CMDILIH 0  100Meg  
******************
* Pilot IHILN    *
******************
*
E_IF11ILn         inILn 0 VALUE {IF( ((I(V_Vika))>2.5*Igt),1,0 )}
E_IF3IHn         inIHn 0 VALUE {IF( ((I(V_Vika))>(Ih/3)),1,0 )} 
* Flip_flop IHILn
bE_IF4DIHILN 0  CMDILIHN i=1m*IF( (V(inILn)*V(inIHn)+V(inIHn)*(1-V(inILn))*(V(CMDILIHN)) )>0.5,1,0) Rpar=1k Cpar=1n

******************
* Pilot VDRM     *
******************
E_IF8Vdrm         inVdrm 0 VALUE {IF( (ABS(V(A,K))>(Vdrm*1.3)),1,0 )}
E_IF9IHVDRM         inIhVdrm 0 VALUE {IF( (I(V_Viak)>(Vdrm*1.3)/1.2meg)|(I(V_Vika)>(Vdrm*1.3)/1.2meg),1,0)}
* Flip_flop VDRM
bE_IF7DVDRM  0   CMDVdrm i=0.01*IF( (V(inVdrm)+(1-V(inVdrm))*V(inIhVdrm)*V(CMDVdrm) )>0.5,1,0) Rpar=100 Cpar=1n
 
****************
* Switch Model *
****************
*.MODEL Smain VSWITCH Roff=1.2meg Ron={Rt} Voff=0 Von=100
*.MODEL Smain VSWITCH Roff=1.2meg Ron={Rt} Voff=0 Von=100 Vser=-1m 
.MODEL Smain sw Roff=1.2meg Ron={Rt} Vh=50 vt=50 ;Vser=-1m 
****************
* Diodes Model *
****************
.MODEL  Dak D( Is=3p Cjo=5pf) 
.MODEL  Dgk D( Is=1E-16 Cjo=50pf Rs=5) 
.ends 
*
*********************************************************************
* 				TRIACs PSpice Library               *
*********************************************************************
*********************************************************************
* 				Standard TRIACs			    *
*********************************************************************
*
*$

.subckt Z0103D A K G
X1 A K G Triac_ST params:
+ Vdrm=400v     
+ Igt=5ma
+ Ih=7ma        
+ Rt=0.42
+ Standard=1
* 1999 / ST / Rev 0
.ends
*$

.subckt Z0103M A K G
X1 A K G Triac_ST params:
+ Vdrm=600v     
+ Igt=5ma
+ Ih=7ma        
+ Rt=0.42
+ Standard=1
* 1999 / ST / Rev 0
.ends
*$

.subckt Z0103S A K G
X1 A K G Triac_ST params:
+ Vdrm=700v     
+ Igt=5ma
+ Ih=7ma        
+ Rt=0.42
+ Standard=1
* 1999 / ST / Rev 0
.ends
*$

.subckt Z0103N A K G
X1 A K G Triac_ST params:
+ Vdrm=800v     
+ Igt=5ma
+ Ih=7ma        
+ Rt=0.42
+ Standard=1
* 1999 / ST / Rev 0
.ends
*$

.subckt Z0107D A K G
X1 A K G Triac_ST params:
+ Vdrm=400v     
+ Igt=7ma
+ Ih=10ma        
+ Rt=0.42
+ Standard=1
* 1999 / ST / Rev 0
.ends
*$

.subckt Z0107M A K G
X1 A K G Triac_ST params:
+ Vdrm=600v     
+ Igt=7ma
+ Ih=10ma        
+ Rt=0.42
+ Standard=1
* 1999 / ST / Rev 0
.ends
*$

.subckt Z0107S A K G
X1 A K G Triac_ST params:
+ Vdrm=700v     
+ Igt=7ma
+ Ih=10ma        
+ Rt=0.42
+ Standard=1
* 1999 / ST / Rev 0
.ends
*$

.subckt Z0107N A K G
X1 A K G Triac_ST params:
+ Vdrm=800v     
+ Igt=7ma
+ Ih=10ma        
+ Rt=0.42
+ Standard=1
* 1999 / ST / Rev 0
.ends
*$

.subckt Z0109D A K G
X1 A K G Triac_ST params:
+ Vdrm=400v     
+ Igt=10ma
+ Ih=10ma        
+ Rt=0.42
+ Standard=1
* 1999 / ST / Rev 0
.ends
*$

.subckt Z0109M A K G
X1 A K G Triac_ST params:
+ Vdrm=600v     
+ Igt=10ma
+ Ih=10ma        
+ Rt=0.42
+ Standard=1
* 1999 / ST / Rev 0
.ends
*$

.subckt Z0109S A K G
X1 A K G Triac_ST params:
+ Vdrm=700v     
+ Igt=10ma
+ Ih=10ma        
+ Rt=0.42
+ Standard=1
* 1999 / ST / Rev 0
.ends
*$

.subckt Z0109N A K G
X1 A K G Triac_ST params:
+ Vdrm=800v     
+ Igt=10ma
+ Ih=10ma        
+ Rt=0.42
+ Standard=1
* 1999 / ST / Rev 0
.ends
*$

.subckt Z0110D A K G
X1 A K G Triac_ST params:
+ Vdrm=400v     
+ Igt=25ma
+ Ih=25ma        
+ Rt=0.42
+ Standard=1
* 1999 / ST / Rev 0
.ends
*$

.subckt Z0110M A K G
X1 A K G Triac_ST params:
+ Vdrm=600v     
+ Igt=25ma
+ Ih=25ma        
+ Rt=0.42
+ Standard=1
* 1999 / ST / Rev 0
.ends
*$

.subckt Z0110S A K G
X1 A K G Triac_ST params:
+ Vdrm=700v     
+ Igt=25ma
+ Ih=25ma        
+ Rt=0.42
+ Standard=1
* 1999 / ST / Rev 0
.ends
*$

.subckt Z0110N A K G
X1 A K G Triac_ST params:
+ Vdrm=800v     
+ Igt=25ma
+ Ih=25ma        
+ Rt=0.42
+ Standard=1
* 1999 / ST / Rev 0
.ends
*$

.subckt Z0402D A K G
X1 A K G Triac_ST params:
+ Vdrm=400v     
+ Igt=3ma
+ Ih=3ma        
+ Rt=0.18
+ Standard=1
* 1999 / ST / Rev 0
.ends
*$

.subckt Z0402M A K G
X1 A K G Triac_ST params:
+ Vdrm=600v     
+ Igt=3ma
+ Ih=3ma        
+ Rt=0.18
+ Standard=1
* 1999 / ST / Rev 0
.ends
*$

.subckt Z0402N A K G
X1 A K G Triac_ST params:
+ Vdrm=800v     
+ Igt=3ma
+ Ih=3ma        
+ Rt=0.18
+ Standard=1
* 1999 / ST / Rev 0
.ends
*$

.subckt Z0405D A K G
X1 A K G Triac_ST params:
+ Vdrm=400v     
+ Igt=5ma
+ Ih=5ma        
+ Rt=0.18
+ Standard=1
* 1999 / ST / Rev 0
.ends
*$

.subckt Z0405M A K G
X1 A K G Triac_ST params:
+ Vdrm=600v     
+ Igt=5ma
+ Ih=5ma        
+ Rt=0.18
+ Standard=1
* 1999 / ST / Rev 0
.ends
*$

.subckt Z0405N A K G
X1 A K G Triac_ST params:
+ Vdrm=800v     
+ Igt=5ma
+ Ih=5ma        
+ Rt=0.18
+ Standard=1
* 1999 / ST / Rev 0
.ends
*$

.subckt Z0409D A K G
X1 A K G Triac_ST params:
+ Vdrm=400v     
+ Igt=10ma
+ Ih=10ma        
+ Rt=0.18
+ Standard=1
* 1999 / ST / Rev 0
.ends
*$

.subckt Z0409M A K G
X1 A K G Triac_ST params:
+ Vdrm=600v     
+ Igt=10ma
+ Ih=10ma        
+ Rt=0.18
+ Standard=1
* 1999 / ST / Rev 0
.ends
*$

.subckt Z0409N A K G
X1 A K G Triac_ST params:
+ Vdrm=800v     
+ Igt=10ma
+ Ih=10ma        
+ Rt=0.18
+ Standard=1
* 1999 / ST / Rev 0
.ends
*$

.subckt Z0410D A K G
X1 A K G Triac_ST params:
+ Vdrm=400v     
+ Igt=25ma
+ Ih=25ma        
+ Rt=0.18
+ Standard=1
* 1999 / ST / Rev 0
.ends
*$

.subckt Z0410M A K G
X1 A K G Triac_ST params:
+ Vdrm=600v     
+ Igt=25ma
+ Ih=25ma        
+ Rt=0.18
+ Standard=1
* 1999 / ST / Rev 0
.ends
*$

.subckt Z0410N A K G
X1 A K G Triac_ST params:
+ Vdrm=800v     
+ Igt=25ma
+ Ih=25ma        
+ Rt=0.18
+ Standard=1
* 1999 / ST / Rev 0
.ends
*$

.subckt BTA06-400C A K G
X1 A K G Triac_ST params:
+ Vdrm=400v     
+ Igt=50ma
+ Ih=25ma        
+ Rt=0.065
+ Standard=1
* 1999 / ST / Rev 0
.ends
*$

.subckt BTA06-600C A K G
X1 A K G Triac_ST params:
+ Vdrm=600v     
+ Igt=50ma
+ Ih=25ma        
+ Rt=0.065
+ Standard=1
* 1999 / ST / Rev 0
.ends
*$

.subckt BTA06-700C A K G
X1 A K G Triac_ST params:
+ Vdrm=700v     
+ Igt=50ma
+ Ih=25ma        
+ Rt=0.065
+ Standard=1
* 1999 / ST / Rev 0
.ends
*$

.subckt BTA06-800C A K G
X1 A K G Triac_ST params:
+ Vdrm=800v     
+ Igt=50ma
+ Ih=25ma        
+ Rt=0.065
+ Standard=1
* 1999 / ST / Rev 0
.ends
*$

.subckt BTB06-400C A K G
X1 A K G Triac_ST params:
+ Vdrm=400v     
+ Igt=50ma
+ Ih=25ma        
+ Rt=0.065
+ Standard=1
* 1999 / ST / Rev 0
.ends
*$

.subckt BTB06-600C A K G
X1 A K G Triac_ST params:
+ Vdrm=600v     
+ Igt=50ma
+ Ih=25ma        
+ Rt=0.065
+ Standard=1
* 1999 / ST / Rev 0
.ends
*$

.subckt BTB06-700C A K G
X1 A K G Triac_ST params:
+ Vdrm=700v     
+ Igt=50ma
+ Ih=25ma        
+ Rt=0.065
+ Standard=1
* 1999 / ST / Rev 0
.ends
*$

.subckt BTB06-800C A K G
X1 A K G Triac_ST params:
+ Vdrm=800v     
+ Igt=50ma
+ Ih=25ma        
+ Rt=0.065
+ Standard=1
* 1999 / ST / Rev 0
.ends
*$

.subckt BTA06-400B A K G
X1 A K G Triac_ST params:
+ Vdrm=400v     
+ Igt=100ma
+ Ih=50ma        
+ Rt=0.065
+ Standard=1
* 1999 / ST / Rev 0
.ends
*$

.subckt BTA06-600B A K G
X1 A K G Triac_ST params:
+ Vdrm=600v     
+ Igt=100ma
+ Ih=50ma        
+ Rt=0.065
+ Standard=1
* 1999 / ST / Rev 0
.ends
*$

.subckt BTA06-700B A K G
X1 A K G Triac_ST params:
+ Vdrm=700v     
+ Igt=100ma
+ Ih=50ma        
+ Rt=0.065
+ Standard=1
* 1999 / ST / Rev 0
.ends
*$

.subckt BTA06-800B A K G
X1 A K G Triac_ST params:
+ Vdrm=800v     
+ Igt=100ma
+ Ih=50ma        
+ Rt=0.065
+ Standard=1
* 1999 / ST / Rev 0
.ends
*$

.subckt BTB06-400B A K G
X1 A K G Triac_ST params:
+ Vdrm=400v     
+ Igt=100ma
+ Ih=50ma        
+ Rt=0.065
+ Standard=1
* 1999 / ST / Rev 0
.ends
*$

.subckt BTB06-600B A K G
X1 A K G Triac_ST params:
+ Vdrm=600v     
+ Igt=100ma
+ Ih=50ma        
+ Rt=0.065
+ Standard=1
* 1999 / ST / Rev 0
.ends
*$

.subckt BTB06-700B A K G
X1 A K G Triac_ST params:
+ Vdrm=700v     
+ Igt=100ma
+ Ih=50ma        
+ Rt=0.065
+ Standard=1
* 1999 / ST / Rev 0
.ends
*$

.subckt BTB06-800B A K G
X1 A K G Triac_ST params:
+ Vdrm=800v     
+ Igt=100ma
+ Ih=50ma        
+ Rt=0.065
+ Standard=1
* 1999 / ST / Rev 0
.ends
*$

.subckt BTA08-400C A K G
X1 A K G Triac_ST params:
+ Vdrm=400v     
+ Igt=50ma
+ Ih=25ma        
+ Rt=0.065
+ Standard=1
* 1999 / ST / Rev 0
.ends
*$

.subckt BTA08-600C A K G
X1 A K G Triac_ST params:
+ Vdrm=600v     
+ Igt=50ma
+ Ih=25ma        
+ Rt=0.065
+ Standard=1
* 1999 / ST / Rev 0
.ends
*$

.subckt BTA08-700C A K G
X1 A K G Triac_ST params:
+ Vdrm=700v     
+ Igt=50ma
+ Ih=25ma        
+ Rt=0.065
+ Standard=1
* 1999 / ST / Rev 0
.ends
*$

.subckt BTA08-800C A K G
X1 A K G Triac_ST params:
+ Vdrm=800v     
+ Igt=50ma
+ Ih=25ma        
+ Rt=0.065
+ Standard=1
* 1999 / ST / Rev 0
.ends
*$

.subckt BTB08-400C A K G
X1 A K G Triac_ST params:
+ Vdrm=400v     
+ Igt=50ma
+ Ih=25ma        
+ Rt=0.065
+ Standard=1
* 1999 / ST / Rev 0
.ends
*$

.subckt BTB08-600C A K G
X1 A K G Triac_ST params:
+ Vdrm=600v     
+ Igt=50ma
+ Ih=25ma        
+ Rt=0.065
+ Standard=1
* 1999 / ST / Rev 0
.ends
*$

.subckt BTB08-700C A K G
X1 A K G Triac_ST params:
+ Vdrm=700v     
+ Igt=50ma
+ Ih=25ma        
+ Rt=0.065
+ Standard=1
* 1999 / ST / Rev 0
.ends
*$

.subckt BTB08-800C A K G
X1 A K G Triac_ST params:
+ Vdrm=800v     
+ Igt=50ma
+ Ih=25ma        
+ Rt=0.065
+ Standard=1
* 1999 / ST / Rev 0
.ends
*$

.subckt BTA08-400B A K G
X1 A K G Triac_ST params:
+ Vdrm=400v     
+ Igt=100ma
+ Ih=50ma        
+ Rt=0.065
+ Standard=1
* 1999 / ST / Rev 0
.ends
*$

.subckt BTA08-600B A K G
X1 A K G Triac_ST params:
+ Vdrm=600v     
+ Igt=100ma
+ Ih=50ma        
+ Rt=0.065
+ Standard=1
* 1999 / ST / Rev 0
.ends
*$

.subckt BTA08-700B A K G
X1 A K G Triac_ST params:
+ Vdrm=700v     
+ Igt=100ma
+ Ih=50ma        
+ Rt=0.065
+ Standard=1
* 1999 / ST / Rev 0
.ends
*$

.subckt BTA08-800B A K G
X1 A K G Triac_ST params:
+ Vdrm=800v     
+ Igt=100ma
+ Ih=50ma        
+ Rt=0.065
+ Standard=1
* 1999 / ST / Rev 0
.ends
*$

.subckt BTB08-400B A K G
X1 A K G Triac_ST params:
+ Vdrm=400v     
+ Igt=100ma
+ Ih=50ma        
+ Rt=0.065
+ Standard=1
* 1999 / ST / Rev 0
.ends
*$

.subckt BTB08-600B A K G
X1 A K G Triac_ST params:
+ Vdrm=600v     
+ Igt=100ma
+ Ih=50ma        
+ Rt=0.065
+ Standard=1
* 1999 / ST / Rev 0
.ends
*$

.subckt BTB08-700B A K G
X1 A K G Triac_ST params:
+ Vdrm=700v     
+ Igt=100ma
+ Ih=50ma        
+ Rt=0.065
+ Standard=1
* 1999 / ST / Rev 0
.ends
*$

.subckt BTB08-800B A K G
X1 A K G Triac_ST params:
+ Vdrm=800v     
+ Igt=100ma
+ Ih=50ma        
+ Rt=0.065
+ Standard=1
* 1999 / ST / Rev 0
.ends
*$


.subckt BTA10-400C A K G
X1 A K G Triac_ST params:
+ Vdrm=400v     
+ Igt=50ma
+ Ih=25ma        
+ Rt=0.04
+ Standard=1
* 1999 / ST / Rev 0
.ends
*$

.subckt BTA10-600C A K G
X1 A K G Triac_ST params:
+ Vdrm=600v     
+ Igt=50ma
+ Ih=25ma        
+ Rt=0.04
+ Standard=1* 1999 / ST / Rev 0
.ends
*$

.subckt BTA10-700C A K G
X1 A K G Triac_ST params:
+ Vdrm=700v     
+ Igt=50ma
+ Ih=25ma        
+ Rt=0.04
+ Standard=1
* 1999 / ST / Rev 0
.ends
*$

.subckt BTA10-800C A K G
X1 A K G Triac_ST params:
+ Vdrm=800v     
+ Igt=50ma
+ Ih=25ma        
+ Rt=0.04
+ Standard=1
* 1999 / ST / Rev 0
.ends
*$

.subckt BTB10-400C A K G
X1 A K G Triac_ST params:
+ Vdrm=400v     
+ Igt=50ma
+ Ih=25ma        
+ Rt=0.04
+ Standard=1
* 1999 / ST / Rev 0
.ends
*$

.subckt BTB10-600C A K G
X1 A K G Triac_ST params:
+ Vdrm=600v     
+ Igt=50ma
+ Ih=25ma        
+ Rt=0.04
+ Standard=1
* 1999 / ST / Rev 0
.ends
*$

.subckt BTB10-700C A K G
X1 A K G Triac_ST params:
+ Vdrm=700v     
+ Igt=50ma
+ Ih=25ma        
+ Rt=0.04
+ Standard=1
* 1999 / ST / Rev 0
.ends
*$

.subckt BTB10-800C A K G
X1 A K G Triac_ST params:
+ Vdrm=800v     
+ Igt=50ma
+ Ih=25ma        
+ Rt=0.04
+ Standard=1
* 1999 / ST / Rev 0
.ends
*$

.subckt BTA10-400B A K G
X1 A K G Triac_ST params:
+ Vdrm=400v     
+ Igt=100ma
+ Ih=50ma        
+ Rt=0.04
+ Standard=1
* 1999 / ST / Rev 0
.ends
*$

.subckt BTA10-600B A K G
X1 A K G Triac_ST params:
+ Vdrm=600v     
+ Igt=100ma
+ Ih=50ma        
+ Rt=0.04
+ Standard=1
* 1999 / ST / Rev 0
.ends
*$

.subckt BTA10-700B A K G
X1 A K G Triac_ST params:
+ Vdrm=700v     
+ Igt=100ma
+ Ih=50ma        
+ Rt=0.04
+ Standard=1
* 1999 / ST / Rev 0
.ends
*$

.subckt BTA10-800B A K G
X1 A K G Triac_ST params:
+ Vdrm=800v     
+ Igt=100ma
+ Ih=50ma        
+ Rt=0.04
+ Standard=1
* 1999 / ST / Rev 0
.ends
*$

.subckt BTB10-400B A K G
X1 A K G Triac_ST params:
+ Vdrm=400v     
+ Igt=100ma
+ Ih=50ma        
+ Rt=0.04
+ Standard=1
* 1999 / ST / Rev 0
.ends
*$

.subckt BTB10-600B A K G
X1 A K G Triac_ST params:
+ Vdrm=600v     
+ Igt=100ma
+ Ih=50ma        
+ Rt=0.04
+ Standard=1
* 1999 / ST / Rev 0
.ends
*$

.subckt BTB10-700B A K G
X1 A K G Triac_ST params:
+ Vdrm=700v     
+ Igt=100ma
+ Ih=50ma        
+ Rt=0.04
+ Standard=1
* 1999 / ST / Rev 0
.ends
*$

.subckt BTB10-800B A K G
X1 A K G Triac_ST params:
+ Vdrm=800v     
+ Igt=100ma
+ Ih=50ma        
+ Rt=0.04
+ Standard=1
* 1999 / ST / Rev 0
.ends
*$

.subckt BTA12-400C A K G
X1 A K G Triac_ST params:
+ Vdrm=400v     
+ Igt=50ma
+ Ih=25ma        
+ Rt=0.034
+ Standard=1
* 1999 / ST / Rev 0
.ends
*$

.subckt BTA12-600C A K G
X1 A K G Triac_ST params:
+ Vdrm=600v     
+ Igt=50ma
+ Ih=25ma        
+ Rt=0.034
+ Standard=1
* 1999 / ST / Rev 0
.ends
*$

.subckt BTA12-700C A K G
X1 A K G Triac_ST params:
+ Vdrm=700v     
+ Igt=50ma
+ Ih=25ma        
+ Rt=0.034
+ Standard=1
* 1999 / ST / Rev 0
.ends
*$

.subckt BTA12-800C A K G
X1 A K G Triac_ST params:
+ Vdrm=800v     
+ Igt=50ma
+ Ih=25ma        
+ Rt=0.034
+ Standard=1
* 1999 / ST / Rev 0
.ends
*$

.subckt BTB12-400C A K G
X1 A K G Triac_ST params:
+ Vdrm=400v     
+ Igt=50ma
+ Ih=25ma        
+ Rt=0.034
+ Standard=1
* 1999 / ST / Rev 0
.ends
*$

.subckt BTB12-600C A K G
X1 A K G Triac_ST params:
+ Vdrm=600v     
+ Igt=50ma
+ Ih=25ma        
+ Rt=0.034
+ Standard=1
* 1999 / ST / Rev 0
.ends
*$

.subckt BTB12-700C A K G
X1 A K G Triac_ST params:
+ Vdrm=700v     
+ Igt=50ma
+ Ih=25ma        
+ Rt=0.034
+ Standard=1
* 1999 / ST / Rev 0
.ends
*$

.subckt BTB12-800C A K G
X1 A K G Triac_ST params:
+ Vdrm=800v     
+ Igt=50ma
+ Ih=25ma        
+ Rt=0.034
+ Standard=1
* 1999 / ST / Rev 0
.ends
*$

.subckt BTA12-400B A K G
X1 A K G Triac_ST params:
+ Vdrm=400v     
+ Igt=100ma
+ Ih=50ma        
+ Rt=0.034
+ Standard=1
* 1999 / ST / Rev 0
.ends
*$

.subckt BTA12-600B A K G
X1 A K G Triac_ST params:
+ Vdrm=600v     
+ Igt=100ma
+ Ih=50ma        
+ Rt=0.034
+ Standard=1
* 1999 / ST / Rev 0
.ends
*$

.subckt BTA12-700B A K G
X1 A K G Triac_ST params:
+ Vdrm=700v     
+ Igt=100ma
+ Ih=50ma        
+ Rt=0.034
+ Standard=1
* 1999 / ST / Rev 0
.ends
*$

.subckt BTA12-800B A K G
X1 A K G Triac_ST params:
+ Vdrm=800v     
+ Igt=100ma
+ Ih=50ma        
+ Rt=0.034
+ Standard=1
* 1999 / ST / Rev 0
.ends
*$

.subckt BTB12-400B A K G
X1 A K G Triac_ST params:
+ Vdrm=400v     
+ Igt=100ma
+ Ih=50ma        
+ Rt=0.034
+ Standard=1
* 1999 / ST / Rev 0
.ends
*$

.subckt BTB12-600B A K G
X1 A K G Triac_ST params:
+ Vdrm=600v     
+ Igt=100ma
+ Ih=50ma        
+ Rt=0.034
+ Standard=1
* 1999 / ST / Rev 0
.ends
*$

.subckt BTB12-700B A K G
X1 A K G Triac_ST params:
+ Vdrm=700v     
+ Igt=100ma
+ Ih=50ma        
+ Rt=0.034
+ Standard=1
* 1999 / ST / Rev 0
.ends
*$

.subckt BTB12-800B A K G
X1 A K G Triac_ST params:
+ Vdrm=800v     
+ Igt=100ma
+ Ih=50ma        
+ Rt=0.034
+ Standard=1
* 1999 / ST / Rev 0
.ends
*$

.subckt BTA16-400B A K G
X1 A K G Triac_ST params:
+ Vdrm=400v     
+ Igt=100ma
+ Ih=50ma        
+ Rt=0.025
+ Standard=1
* 1999 / ST / Rev 0
.ends
*$

.subckt BTA16-600B A K G
X1 A K G Triac_ST params:
+ Vdrm=600v     
+ Igt=100ma
+ Ih=50ma        
+ Rt=0.025
+ Standard=1
* 1999 / ST / Rev 0
.ends
*$

.subckt BTA16-700B A K G
X1 A K G Triac_ST params:
+ Vdrm=700v     
+ Igt=100ma
+ Ih=50ma        
+ Rt=0.025
+ Standard=1
* 1999 / ST / Rev 0
.ends
*$

.subckt BTA16-800B A K G
X1 A K G Triac_ST params:
+ Vdrm=800v     
+ Igt=100ma
+ Ih=50ma        
+ Rt=0.025
+ Standard=1
* 1999 / ST / Rev 0
.ends
*$

.subckt BTB16-400B A K G
X1 A K G Triac_ST params:
+ Vdrm=400v     
+ Igt=100ma
+ Ih=50ma        
+ Rt=0.025
+ Standard=1
* 1999 / ST / Rev 0
.ends
*$

.subckt BTB16-600B A K G
X1 A K G Triac_ST params:
+ Vdrm=600v     
+ Igt=100ma
+ Ih=50ma        
+ Rt=0.025
+ Standard=1
* 1999 / ST / Rev 0
.ends
*$

.subckt BTB16-700B A K G
X1 A K G Triac_ST params:
+ Vdrm=700v     
+ Igt=100ma
+ Ih=50ma        
+ Rt=0.025
+ Standard=1
* 1999 / ST / Rev 0
.ends
*$

.subckt BTB16-800B A K G
X1 A K G Triac_ST params:
+ Vdrm=800v     
+ Igt=100ma
+ Ih=50ma        
+ Rt=0.025
+ Standard=1
* 1999 / ST / Rev 0
.ends
*$

.subckt BTB24-400B A K G
X1 A K G Triac_ST params:
+ Vdrm=400v     
+ Igt=100ma
+ Ih=50ma        
+ Rt=0.019
+ Standard=1
* 1999 / ST / Rev 0
.ends
*$

.subckt BTB24-600B A K G
X1 A K G Triac_ST params:
+ Vdrm=600v     
+ Igt=100ma
+ Ih=50ma        
+ Rt=0.019
+ Standard=1
* 1999 / ST / Rev 0
.ends
*$

.subckt BTB24-700B A K G
X1 A K G Triac_ST params:
+ Vdrm=700v     
+ Igt=100ma
+ Ih=50ma        
+ Rt=0.019
+ Standard=1
* 1999 / ST / Rev 0
.ends
*$

.subckt BTB24-800B A K G
X1 A K G Triac_ST params:
+ Vdrm=800v     
+ Igt=100ma
+ Ih=50ma        
+ Rt=0.019
+ Standard=1
* 1999 / ST / Rev 0
.ends
*$

.subckt BTA25-400B A K G
X1 A K G Triac_ST params:
+ Vdrm=400v     
+ Igt=100ma
+ Ih=80ma        
+ Rt=0.014
+ Standard=1
* 1999 / ST / Rev 0
.ends
*$

.subckt BTA25-600B A K G
X1 A K G Triac_ST params:
+ Vdrm=600v     
+ Igt=100ma
+ Ih=80ma        
+ Rt=0.014
+ Standard=1
* 1999 / ST / Rev 0
.ends
*$

.subckt BTA25-700B A K G
X1 A K G Triac_ST params:
+ Vdrm=700v     
+ Igt=100ma
+ Ih=80ma        
+ Rt=0.014
+ Standard=1
* 1999 / ST / Rev 0
.ends
*$

.subckt BTA25-800B A K G
X1 A K G Triac_ST params:
+ Vdrm=800v     
+ Igt=100ma
+ Ih=80ma        
+ Rt=0.014
+ Standard=1
* 1999 / ST / Rev 0
.ends
*$

.subckt BTA26-400B A K G
X1 A K G Triac_ST params:
+ Vdrm=400v     
+ Igt=100ma
+ Ih=80ma        
+ Rt=0.015
+ Standard=1
* 1999 / ST / Rev 0
.ends
*$

.subckt BTA26-600B A K G
X1 A K G Triac_ST params:
+ Vdrm=600v     
+ Igt=100ma
+ Ih=80ma        
+ Rt=0.015
+ Standard=1
* 1999 / ST / Rev 0
.ends
*$

.subckt BTA26-700B A K G
X1 A K G Triac_ST params:
+ Vdrm=700v     
+ Igt=100ma
+ Ih=80ma        
+ Rt=0.015
+ Standard=1
* 1999 / ST / Rev 0
.ends
*$

.subckt BTA26-800B A K G
X1 A K G Triac_ST params:
+ Vdrm=800v     
+ Igt=100ma
+ Ih=80ma        
+ Rt=0.015
+ Standard=1
* 1999 / ST / Rev 0
.ends
*$

.subckt BTB26-400B A K G
X1 A K G Triac_ST params:
+ Vdrm=400v     
+ Igt=100ma
+ Ih=80ma        
+ Rt=0.015
+ Standard=1
* 1999 / ST / Rev 0
.ends
*$

.subckt BTB26-600B A K G
X1 A K G Triac_ST params:
+ Vdrm=600v     
+ Igt=100ma
+ Ih=80ma        
+ Rt=0.015
+ Standard=1
* 1999 / ST / Rev 0
.ends
*$

.subckt BTB26-700B A K G
X1 A K G Triac_ST params:
+ Vdrm=700v     
+ Igt=100ma
+ Ih=80ma        
+ Rt=0.015
+ Standard=1
* 1999 / ST / Rev 0
.ends
*$

.subckt BTB26-800B A K G
X1 A K G Triac_ST params:
+ Vdrm=800v     
+ Igt=100ma
+ Ih=80ma        
+ Rt=0.015
+ Standard=1
* 1999 / ST / Rev 0
.ends
*$

.subckt BTA40-400B A K G
X1 A K G Triac_ST params:
+ Vdrm=400v     
+ Igt=100ma
+ Ih=80ma        
+ Rt=0.012
+ Standard=1
* 1999 / ST / Rev 0
.ends
*$

.subckt BTA40-600B A K G
X1 A K G Triac_ST params:
+ Vdrm=600v     
+ Igt=100ma
+ Ih=80ma        
+ Rt=0.012
+ Standard=1
* 1999 / ST / Rev 0
.ends
*$

.subckt BTA40-700B A K G
X1 A K G Triac_ST params:
+ Vdrm=700v     
+ Igt=100ma
+ Ih=80ma        
+ Rt=0.012
+ Standard=1
* 1999 / ST / Rev 0
.ends
*$

.subckt BTA40-800B A K G
X1 A K G Triac_ST params:
+ Vdrm=800v     
+ Igt=100ma
+ Ih=80ma        
+ Rt=0.012
+ Standard=1
* 1999 / ST / Rev 0
.ends
*$

.subckt BTA41-400B A K G
X1 A K G Triac_ST params:
+ Vdrm=400v     
+ Igt=100ma
+ Ih=80ma        
+ Rt=0.01
+ Standard=1
* 1999 / ST / Rev 0
.ends
*$

.subckt BTA41-600B A K G
X1 A K G Triac_ST params:
+ Vdrm=600v     
+ Igt=100ma
+ Ih=80ma        
+ Rt=0.01
+ Standard=1
* 1999 / ST / Rev 0
.ends
*$

.subckt BTA41-700B A K G
X1 A K G Triac_ST params:
+ Vdrm=700v     
+ Igt=100ma
+ Ih=80ma        
+ Rt=0.01
+ Standard=1
* 1999 / ST / Rev 0
.ends
*$

.subckt BTA41-800B A K G
X1 A K G Triac_ST params:
+ Vdrm=800v     
+ Igt=100ma
+ Ih=80ma        
+ Rt=0.01
+ Standard=1
* 1999 / ST / Rev 0
.ends
*$

.subckt BTB41-400B A K G
X1 A K G Triac_ST params:
+ Vdrm=400v     
+ Igt=100ma
+ Ih=80ma        
+ Rt=0.01
+ Standard=1
* 1999 / ST / Rev 0
.ends
*$

.subckt BTB41-600B A K G
X1 A K G Triac_ST params:
+ Vdrm=600v     
+ Igt=100ma
+ Ih=80ma        
+ Rt=0.01
+ Standard=1
* 1999 / ST / Rev 0
.ends
*$

.subckt BTB41-700B A K G
X1 A K G Triac_ST params:
+ Vdrm=700v     
+ Igt=100ma
+ Ih=80ma        
+ Rt=0.01
+ Standard=1
* 1999 / ST / Rev 0
.ends
*$

.subckt BTB41-800B A K G
X1 A K G Triac_ST params:
+ Vdrm=800v     
+ Igt=100ma
+ Ih=80ma        
+ Rt=0.01
+ Standard=1
* 1999 / ST / Rev 0
.ends
*$

.subckt Z00607DA A K G
X1 A K G Triac_ST params:
+ Vdrm=400v     
+ Igt=7ma
+ Ih=5ma        
+ Rt=0.42
+ Standard=1
* 1999 / ST / Rev 0
.ends
*$

.subckt Z00607MA A K G
X1 A K G Triac_ST params:
+ Vdrm=600v     
+ Igt=7ma
+ Ih=5ma        
+ Rt=0.42
+ Standard=1
* 1999 / ST / Rev 0
.ends
*$

.subckt T2550H-600T        A K G
X1 A K G Triac_ST params:
+ Vdrm=600v     
+ Igt=50ma
+ Ih=75ma        
+ Rt=0.019
+ Standard=1
* 1999 / ST / Rev 0
.ends
*
*********************************************************************
* 		Snubberless & Logic Level  Triac_STs 		    *    
*********************************************************************
*
*$

.subckt BTA12-400SW A K G
X1 A K G Triac_ST params:
+ Vdrm=400v     
+ Igt=10ma
+ Ih=25ma        
+ Rt=0.04
+ Standard=0
* 1999 / ST / Rev 0
.ends
*$

.subckt BTA12-600SW A K G
X1 A K G Triac_ST params:
+ Vdrm=600v     
+ Igt=10ma
+ Ih=25ma        
+ Rt=0.04
+ Standard=0
* 1999 / ST / Rev 0
.ends
*$

.subckt BTA12-700SW A K G
X1 A K G Triac_ST params:
+ Vdrm=700v     
+ Igt=10ma
+ Ih=25ma        
+ Rt=0.04
+ Standard=0
* 1999 / ST / Rev 0
.ends
*$

.subckt BTB12-400SW A K G
X1 A K G Triac_ST params:
+ Vdrm=400v     
+ Igt=10ma
+ Ih=25ma        
+ Rt=0.04
+ Standard=0
* 1999 / ST / Rev 0
.ends
*$

.subckt BTB12-600SW A K G
X1 A K G Triac_ST params:
+ Vdrm=600v     
+ Igt=10ma
+ Ih=25ma        
+ Rt=0.04
+ Standard=0
* 1999 / ST / Rev 0
.ends
*$

.subckt BTB12-700SW A K G
X1 A K G Triac_ST params:
+ Vdrm=700v     
+ Igt=10ma
+ Ih=25ma        
+ Rt=0.04
+ Standard=0
* 1999 / ST / Rev 0
.ends
*$

.subckt BTA12-400CW A K G
X1 A K G Triac_ST params:
+ Vdrm=400v     
+ Igt=35ma
+ Ih=35ma        
+ Rt=0.042
+ Standard=0
* 1999 / ST / Rev 0
.ends
*$

.subckt BTA12-600CW A K G
X1 A K G Triac_ST params:
+ Vdrm=600v     
+ Igt=35ma
+ Ih=35ma        
+ Rt=0.042
+ Standard=0
* 1999 / ST / Rev 0
.ends
*$

.subckt BTA12-700CW A K G
X1 A K G Triac_ST params:
+ Vdrm=700v     
+ Igt=35ma
+ Ih=35ma        
+ Rt=0.042
+ Standard=0
* 1999 / ST / Rev 0
.ends
*$

.subckt BTA12-800CW A K G
X1 A K G Triac_ST params:
+ Vdrm=800v     
+ Igt=35ma
+ Ih=35ma        
+ Rt=0.042
+ Standard=0
* 1999 / ST / Rev 0
.ends
*$

.subckt BTB12-400CW A K G
X1 A K G Triac_ST params:
+ Vdrm=400v     
+ Igt=35ma
+ Ih=35ma        
+ Rt=0.042
+ Standard=0
* 1999 / ST / Rev 0
.ends
*$

.subckt BTB12-600CW A K G
X1 A K G Triac_ST params:
+ Vdrm=600v     
+ Igt=35ma
+ Ih=35ma        
+ Rt=0.042
+ Standard=0
* 1999 / ST / Rev 0
.ends
*$

.subckt BTB12-700CW A K G
X1 A K G Triac_ST params:
+ Vdrm=700v     
+ Igt=35ma
+ Ih=35ma        
+ Rt=0.042
+ Standard=0
* 1999 / ST / Rev 0
.ends
*$

.subckt BTB12-800CW A K G
X1 A K G Triac_ST params:
+ Vdrm=800v     
+ Igt=35ma
+ Ih=35ma        
+ Rt=0.042
+ Standard=0
* 1999 / ST / Rev 0
.ends
*$

.subckt BTA12-400BW A K G
X1 A K G Triac_ST params:
+ Vdrm=400v     
+ Igt=50ma
+ Ih=50ma        
+ Rt=0.042
+ Standard=0
* 1999 / ST / Rev 0
.ends
*$

.subckt BTA12-600BW A K G
X1 A K G Triac_ST params:
+ Vdrm=600v     
+ Igt=50ma
+ Ih=50ma        
+ Rt=0.042
+ Standard=0
* 1999 / ST / Rev 0
.ends
*$

.subckt BTA12-700BW A K G
X1 A K G Triac_ST params:
+ Vdrm=700v     
+ Igt=50ma
+ Ih=50ma        
+ Rt=0.042
+ Standard=0
* 1999 / ST / Rev 0
.ends
*$

.subckt BTA12-800BW A K G
X1 A K G Triac_ST params:
+ Vdrm=800v     
+ Igt=50ma
+ Ih=50ma        
+ Rt=0.042
+ Standard=0
* 1999 / ST / Rev 0
.ends
*$

.subckt BTB12-400BW A K G
X1 A K G Triac_ST params:
+ Vdrm=400v     
+ Igt=50ma