

.subckt 2N5444          MT2 gate MT1
* Min and Max parameters
X1 MT2 gate MT1 Triac params:
+ Vdrm=200v  Idrm=10u     Ih=70ma      dVdt=50e6   Ton=1u
+ Igt=70ma   Vgt=2.0v     Vtm=1.65v    Itm=56
* 90-5-18    Motorola     DL137, Rev 2, 3/89
.ends
*$

.subckt 2N5445          MT2 gate MT1
* Min and Max parameters
X1 MT2 gate MT1 Triac params:
+ Vdrm=400v  Idrm=10u     Ih=70ma      dVdt=30e6   Ton=1u
+ Igt=70ma   Vgt=2.0v     Vtm=1.65v    Itm=56
* 90-5-18    Motorola     DL137, Rev 2, 3/89
.ends
*$

.subckt 2N5446          MT2 gate MT1
* Min and Max parameters
X1 MT2 gate MT1 Triac params:
+ Vdrm=600v  Idrm=10u     Ih=70ma      dVdt=20e6   Ton=1u
+ Igt=70ma   Vgt=2.0v     Vtm=1.65v    Itm=56
* 90-5-18    Motorola     DL137, Rev 2, 3/89
.ends
*$

.subckt 2N5567          MT2 gate MT1
* Min and Max parameters
X1 MT2 gate MT1 Triac params:
+ Vdrm=200v  Idrm=10u     Ih=30ma      dVdt=150e6  Ton=1u
+ Igt=40ma   Vgt=2.5v     Vtm=1.3v     Itm=14.2
* 90-5-18    Motorola     DL137, Rev 2, 3/89
.ends
*$

.subckt 2N5568          MT2 gate MT1
* Min and Max parameters
X1 MT2 gate MT1 Triac params:
+ Vdrm=400v  Idrm=10u     Ih=30ma      dVdt=100e6  Ton=1u
+ Igt=40ma   Vgt=2.5v     Vtm=1.3v     Itm=14.2
* 90-5-18    Motorola     DL137, Rev 2, 3/89
.ends
*$

.subckt 2N5571          MT2 gate MT1
* Min and Max parameters
X1 MT2 gate MT1 Triac params:
+ Vdrm=200v  Idrm=10u     Ih=75ma      dVdt=150e6  Ton=1u
+ Igt=80ma   Vgt=2.5v     Vtm=1.3v     Itm=21
* 90-5-18    Motorola     DL137, Rev 2, 3/89
.ends
*$

.subckt 2N5572          MT2 gate MT1
* Min and Max parameters
X1 MT2 gate MT1 Triac params:
+ Vdrm=400v  Idrm=10u     Ih=75ma      dVdt=100e6  Ton=1u
+ Igt=80ma   Vgt=2.5v     Vtm=1.3v     Itm=21
* 90-5-18    Motorola     DL137, Rev 2, 3/89
.ends
*$

.subckt 2N6145          MT2 gate MT1
* Min and Max parameters
X1 MT2 gate MT1 Triac params:
+ Vdrm=200v  Idrm=10u     Ih=75ma      dVdt=150e6  Ton=1u
+ Igt=80ma   Vgt=2.5v     Vtm=1.3v     Itm=21
* 90-5-18    Motorola     DL137, Rev 2, 3/89
.ends
*$

.subckt 2N6146          MT2 gate MT1
* Min and Max parameters
X1 MT2 gate MT1 Triac params:
+ Vdrm=400v  Idrm=10u     Ih=75ma      dVdt=100e6  Ton=1u
+ Igt=80ma   Vgt=2.5v     Vtm=1.3v     Itm=21
* 90-5-18    Motorola     DL137, Rev 2, 3/89
.ends
*$

.subckt 2N6147          MT2 gate MT1
* Min and Max parameters
X1 MT2 gate MT1 Triac params:
+ Vdrm=600v  Idrm=10u     Ih=75ma      dVdt=75e6   Ton=1u
+ Igt=80ma   Vgt=2.5v     Vtm=1.3v     Itm=21
* 90-5-18    Motorola     DL137, Rev 2, 3/89
.ends
*$

.subckt 2N6157          MT2 gate MT1
* "Typical" parameters
X1 MT2 gate MT1 Triac params:
+ Vdrm=200v  Idrm=10u     Ih=10ma      dVdt=1000e6 Ton=1u
+ Igt=20ma   Vgt=0.7v     Vtm=1.5v     Itm=42
* 90-5-18    Motorola     DL137, Rev 2, 3/89
.ends
*$

.subckt 2N6158          MT2 gate MT1
* "Typical" parameters
X1 MT2 gate MT1 Triac params:
+ Vdrm=400v  Idrm=10u     Ih=10ma      dVdt=1000e6 Ton=1u
+ Igt=20ma   Vgt=0.7v     Vtm=1.5v     Itm=42
* 90-5-18    Motorola     DL137, Rev 2, 3/89
.ends
*$

.subckt 2N6159          MT2 gate MT1
* "Typical" parameters
X1 MT2 gate MT1 Triac params:
+ Vdrm=600v  Idrm=10u     Ih=10ma      dVdt=1000e6 Ton=1u
+ Igt=20ma   Vgt=0.7v     Vtm=1.5v     Itm=42
* 90-5-18    Motorola     DL137, Rev 2, 3/89
.ends
*$

.subckt 2N6160          MT2 gate MT1
* "Typical" parameters
X1 MT2 gate MT1 Triac params:
+ Vdrm=200v  Idrm=10u     Ih=10ma      dVdt=1000e6 Ton=1u
+ Igt=20ma   Vgt=0.7v     Vtm=1.5v     Itm=42
* 90-5-18    Motorola     DL137, Rev 2, 3/89
.ends
*$

.subckt 2N6161          MT2 gate MT1
* "Typical" parameters
X1 MT2 gate MT1 Triac params:
+ Vdrm=400v  Idrm=10u     Ih=10ma      dVdt=1000e6 Ton=1u
+ Igt=20ma   Vgt=0.7v     Vtm=1.5v     Itm=42
* 90-5-18    Motorola     DL137, Rev 2, 3/89
.ends
*$

.subckt 2N6162          MT2 gate MT1
* "Typical" parameters
X1 MT2 gate MT1 Triac params:
+ Vdrm=600v  Idrm=10u     Ih=10ma      dVdt=1000e6 Ton=1u
+ Igt=20ma   Vgt=0.7v     Vtm=1.5v     Itm=42
* 90-5-18    Motorola     DL137, Rev 2, 3/89
.ends
*$

.subckt 2N6163          MT2 gate MT1
* "Typical" parameters
X1 MT2 gate MT1 Triac params:
+ Vdrm=200v  Idrm=10u     Ih=10ma      dVdt=1000e6 Ton=1u
+ Igt=20ma   Vgt=0.7v     Vtm=1.5v     Itm=42
* 90-5-18    Motorola     DL137, Rev 2, 3/89
.ends
*$

.subckt 2N6164          MT2 gate MT1
* "Typical" parameters
X1 MT2 gate MT1 Triac params:
+ Vdrm=400v  Idrm=10u     Ih=10ma      dVdt=1000e6 Ton=1u
+ Igt=20ma   Vgt=0.7v     Vtm=1.5v     Itm=42
* 90-5-18    Motorola     DL137, Rev 2, 3/89
.ends
*$

.subckt 2N6165          MT2 gate MT1
* "Typical" parameters
X1 MT2 gate MT1 Triac params:
+ Vdrm=600v  Idrm=10u     Ih=10ma      dVdt=1000e6 Ton=1u
+ Igt=20ma   Vgt=0.7v     Vtm=1.5v     Itm=42
* 90-5-18    Motorola     DL137, Rev 2, 3/89
.ends
*$

.subckt 2N6342          MT2 gate MT1
* "Typical" parameters
X1 MT2 gate MT1 Triac params:
+ Vdrm=200v  Idrm=10u     Ih=6ma       dVdt=1000e6 Ton=1.5u
+ Igt=12ma   Vgt=0.9v     Vtm=1.3v     Itm=11
* 90-5-18    Motorola     DL137, Rev 2, 3/89
.ends
*$

.subckt 2N6342A         MT2 gate MT1
* "Typical" parameters
X1 MT2 gate MT1 Triac params:
+ Vdrm=200v  Idrm=10u     Ih=6ma       dVdt=1000e6 Ton=1.5u
+ Igt=6ma    Vgt=0.9v     Vtm=1.3v     Itm=17
* 90-5-18    Motorola     DL137, Rev 2, 3/89
.ends
*$

.subckt 2N6343          MT2 gate MT1
* "Typical" parameters
X1 MT2 gate MT1 Triac params:
+ Vdrm=400v  Idrm=10u     Ih=6ma       dVdt=1000e6 Ton=1.5u
+ Igt=12ma   Vgt=0.9v     Vtm=1.3v     Itm=11
* 90-5-18    Motorola     DL137, Rev 2, 3/89
.ends
*$

.subckt 2N6343A         MT2 gate MT1
* "Typical" parameters
X1 MT2 gate MT1 Triac params:
+ Vdrm=400v  Idrm=10u     Ih=6ma       dVdt=1000e6 Ton=1.5u
+ Igt=6ma    Vgt=0.9v     Vtm=1.3v     Itm=17
* 90-5-18    Motorola     DL137, Rev 2, 3/89
.ends
*$

.subckt 2N6344          MT2 gate MT1
* "Typical" parameters
X1 MT2 gate MT1 Triac params:
+ Vdrm=600v  Idrm=10u     Ih=6ma       dVdt=1000e6 Ton=1.5u
+ Igt=12ma   Vgt=0.9v     Vtm=1.3v     Itm=11
* 90-5-18    Motorola     DL137, Rev 2, 3/89
.ends
*$

.subckt 2N6344A         MT2 gate MT1
* "Typical" parameters
X1 MT2 gate MT1 Triac params:
+ Vdrm=600v  Idrm=10u     Ih=6ma       dVdt=1000e6 Ton=1.5u
+ Igt=6ma    Vgt=0.9v     Vtm=1.3v     Itm=17
* 90-5-18    Motorola     DL137, Rev 2, 3/89
.ends
*$

.subckt 2N6345         MT2 gate MT1
* "Typical" parameters
X1 MT2 gate MT1 Triac params:
+ Vdrm=800v  Idrm=10u     Ih=6ma       dVdt=1000e6 Ton=1.5u
+ Igt=12ma   Vgt=0.9v     Vtm=1.3v     Itm=11
* 90-5-18    Motorola     DL137, Rev 2, 3/89
.ends
*$

.subckt 2N6345A         MT2 gate MT1
* "Typical" parameters
X1 MT2 gate MT1 Triac params:
+ Vdrm=800v  Idrm=10u     Ih=6ma       dVdt=1000e6 Ton=1.5u
+ Igt=6ma    Vgt=0.9v     Vtm=1.3v     Itm=17
* 90-5-18    Motorola     DL137, Rev 2, 3/89
.ends
*$

.subckt 2N6346          MT2 gate MT1
* "Typical" parameters
X1 MT2 gate MT1 Triac params:
+ Vdrm=200v  Idrm=10u     Ih=6ma       dVdt=1000e6 Ton=1.5u
+ Igt=12ma   Vgt=0.9v     Vtm=1.3v     Itm=11
* 90-5-18    Motorola     DL137, Rev 2, 3/89
.ends
*$

.subckt 2N6346A         MT2 gate MT1
* "Typical" parameters
X1 MT2 gate MT1 Triac params:
+ Vdrm=200v  Idrm=10u     Ih=6ma       dVdt=1000e6 Ton=1.5u
+ Igt=6ma    Vgt=0.9v     Vtm=1.3v     Itm=17
* 90-5-18    Motorola     DL137, Rev 2, 3/89
.ends
*$

.subckt 2N6347          MT2 gate MT1
* "Typical" parameters
X1 MT2 gate MT1 Triac params:
+ Vdrm=400v  Idrm=10u     Ih=6ma       dVdt=1000e6 Ton=1.5u
+ Igt=12ma   Vgt=0.9v     Vtm=1.3v     Itm=11
* 90-5-18    Motorola     DL137, Rev 2, 3/89
.ends
*$

.subckt 2N6347A         MT2 gate MT1
* "Typical" parameters
X1 MT2 gate MT1 Triac params:
+ Vdrm=400v  Idrm=10u     Ih=6ma       dVdt=1000e6 Ton=1.5u
+ Igt=6ma    Vgt=0.9v     Vtm=1.3v     Itm=17
* 90-5-18    Motorola     DL137, Rev 2, 3/89
.ends
*$

.subckt 2N6348          MT2 gate MT1
* "Typical" parameters
X1 MT2 gate MT1 Triac params:
+ Vdrm=600v  Idrm=10u     Ih=6ma       dVdt=1000e6 Ton=1.5u
+ Igt=12ma   Vgt=0.9v     Vtm=1.3v     Itm=11
* 90-5-18    Motorola     DL137, Rev 2, 3/89
.ends
*$

.subckt 2N6348A         MT2 gate MT1
* "Typical" parameters
X1 MT2 gate MT1 Triac params:
+ Vdrm=600v  Idrm=10u     Ih=6ma       dVdt=1000e6 Ton=1.5u
+ Igt=6ma    Vgt=0.9v     Vtm=1.3v     Itm=17
* 90-5-18    Motorola     DL137, Rev 2, 3/89
.ends
*$

.subckt 2N6349          MT2 gate MT1
* "Typical" parameters
X1 MT2 gate MT1 Triac params:
+ Vdrm=800v  Idrm=10u     Ih=6ma       dVdt=1000e6 Ton=1.5u
+ Igt=12ma   Vgt=0.9v     Vtm=1.3v     Itm=11
* 90-5-18    Motorola     DL137, Rev 2, 3/89
.ends
*$

.subckt 2N6349A         MT2 gate MT1
* "Typical" parameters
X1 MT2 gate MT1 Triac params:
+ Vdrm=800v  Idrm=10u     Ih=6ma       dVdt=1000e6 Ton=1.5u
+ Igt=6ma    Vgt=0.9v     Vtm=1.3v     Itm=17
* 90-5-18    Motorola     DL137, Rev 2, 3/89
.ends
*$

.subckt MAC15-4         MT2 gate MT1
* Min and Max parameters
X1 MT2 gate MT1 Triac params:
+ Vdrm=200v  Idrm=10u     Ih=6ma       dVdt=1000e6 Ton=1.5u
+ Igt=50ma   Vgt=2.0v     Vtm=1.3v     Itm=21
* 90-5-18    Motorola     DL137, Rev 2, 3/89
.ends
*$

.subckt MAC15-4FP       MT2 gate MT1
* Min and Max parameters
X1 MT2 gate MT1 Triac params:
+ Vdrm=200v  Idrm=10u     Ih=6ma       dVdt=1000e6 Ton=1.5u
+ Igt=50ma   Vgt=2.0v     Vtm=1.3v     Itm=21
* 90-5-18    Motorola     DL137, Rev 2, 3/89
.ends
*$

.subckt MAC15-6         MT2 gate MT1
* Min and Max parameters
X1 MT2 gate MT1 Triac params:
+ Vdrm=400v  Idrm=10u     Ih=6ma       dVdt=1000e6 Ton=1.5u
+ Igt=50ma   Vgt=2.0v     Vtm=1.3v     Itm=21
* 90-5-18    Motorola     DL137, Rev 2, 3/89
.ends
*$

.subckt MAC15-6FP       MT2 gate MT1
* Min and Max parameters
X1 MT2 gate MT1 Triac params:
+ Vdrm=400v  Idrm=10u     Ih=6ma       dVdt=1000e6 Ton=1.5u
+ Igt=50ma   Vgt=2.0v     Vtm=1.3v     Itm=21
* 90-5-18    Motorola     DL137, Rev 2, 3/89
.ends
*$

.subckt MAC15-8         MT2 gate MT1
* Min and Max parameters
X1 MT2 gate MT1 Triac params:
+ Vdrm=600v  Idrm=10u     Ih=6ma       dVdt=1000e6 Ton=1.5u
+ Igt=50ma   Vgt=2.0v     Vtm=1.3v     Itm=21
* 90-5-18    Motorola     DL137, Rev 2, 3/89
.ends
*$

.subckt MAC15-8FP       MT2 gate MT1
* Min and Max parameters
X1 MT2 gate MT1 Triac params:
+ Vdrm=600v  Idrm=10u     Ih=6ma       dVdt=1000e6 Ton=1.5u
+ Igt=50ma   Vgt=2.0v     Vtm=1.3v     Itm=21
* 90-5-18    Motorola     DL137, Rev 2, 3/89
.ends
*$

.subckt MAC15-10        MT2 gate MT1
* Min and Max parameters
X1 MT2 gate MT1 Triac params:
+ Vdrm=800v  Idrm=10u     Ih=6ma       dVdt=1000e6 Ton=1.5u
+ Igt=50ma   Vgt=2.0v     Vtm=1.3v     Itm=21
* 90-5-18    Motorola     DL137, Rev 2, 3/89
.ends
*$

.subckt MAC15-10FP      MT2 gate MT1
* Min and Max parameters
X1 MT2 gate MT1 Triac params:
+ Vdrm=800v  Idrm=10u     Ih=6ma       dVdt=1000e6 Ton=1.5u
+ Igt=50ma   Vgt=2.0v     Vtm=1.3v     Itm=21
* 90-5-18    Motorola     DL137, Rev 2, 3/89
.ends
*$

.subckt MAC15A4         MT2 gate MT1
* Min and Max parameters
X1 MT2 gate MT1 Triac params:
+ Vdrm=200v  Idrm=10u     Ih=6ma       dVdt=1000e6 Ton=1.5u
+ Igt=50ma   Vgt=2.0v     Vtm=1.3v     Itm=21
* 90-5-18    Motorola     DL137, Rev 2, 3/89
.ends
*$

.subckt MAC15A4FP       MT2 gate MT1
* Min and Max parameters
X1 MT2 gate MT1 Triac params:
+ Vdrm=200v  Idrm=10u     Ih=6ma       dVdt=1000e6 Ton=1.5u
+ Igt=50ma   Vgt=2.0v     Vtm=1.3v     Itm=21
* 90-5-18    Motorola     DL137, Rev 2, 3/89
.ends
*$

.subckt MAC15A6         MT2 gate MT1
* Min and Max parameters
X1 MT2 gate MT1 Triac params:
+ Vdrm=400v  Idrm=10u     Ih=6ma       dVdt=1000e6 Ton=1.5u
+ Igt=50ma   Vgt=2.0v     Vtm=1.3v     Itm=21
* 90-5-18    Motorola     DL137, Rev 2, 3/89
.ends
*$

.subckt MAC15A6FP       MT2 gate MT1
* Min and Max parameters
X1 MT2 gate MT1 Triac params:
+ Vdrm=400v  Idrm=10u     Ih=6ma       dVdt=1000e6 Ton=1.5u
+ Igt=50ma   Vgt=2.0v     Vtm=1.3v     Itm=21
* 90-5-18    Motorola     DL137, Rev 2, 3/89
.ends
*$

.subckt MAC15A8         MT2 gate MT1
* Min and Max parameters
X1 MT2 gate MT1 Triac params:
+ Vdrm=600v  Idrm=10u     Ih=6ma       dVdt=1000e6 Ton=1.5u
+ Igt=50ma   Vgt=2.0v     Vtm=1.3v     Itm=21
* 90-5-18    Motorola     DL137, Rev 2, 3/89
.ends
*$

.subckt MAC15A8FP       MT2 gate MT1
* Min and Max parameters
X1 MT2 gate MT1 Triac params:
+ Vdrm=600v  Idrm=10u     Ih=6ma       dVdt=1000e6 Ton=1.5u
+ Igt=50ma   Vgt=2.0v     Vtm=1.3v     Itm=21
* 90-5-18    Motorola     DL137, Rev 2, 3/89
.ends
*$

.subckt MAC15A10        MT2 gate MT1
* Min and Max parameters
X1 MT2 gate MT1 Triac params:
+ Vdrm=800v  Idrm=10u     Ih=6ma       dVdt=1000e6 Ton=1.5u
+ Igt=50ma   Vgt=2.0v     Vtm=1.3v     Itm=21
* 90-5-18    Motorola     DL137, Rev 2, 3/89
.ends
*$

.subckt MAC15A10FP      MT2 gate MT1
* Min and Max parameters
X1 MT2 gate MT1 Triac params:
+ Vdrm=800v  Idrm=10u     Ih=6ma       dVdt=1000e6 Ton=1.5u
+ Igt=50ma   Vgt=2.0v     Vtm=1.3v     Itm=21
* 90-5-18    Motorola     DL137, Rev 2, 3/89
.ends
*$

.subckt MAC210-4        MT2 gate MT1
* "Typical" parameters
X1 MT2 gate MT1 Triac params:
+ Vdrm=200v  Idrm=10u     Ih=6ma       dVdt=100e6  Ton=1.5u
+ Igt=12ma   Vgt=0.9v     Vtm=1.2v     Itm=14
* 90-5-18    Motorola     DL137, Rev 2, 3/89
.ends
*$

.subckt MAC210-6        MT2 gate MT1
* "Typical" parameters
X1 MT2 gate MT1 Triac params:
+ Vdrm=400v  Idrm=10u     Ih=6ma       dVdt=100e6  Ton=1.5u
+ Igt=12ma   Vgt=0.9v     Vtm=1.2v     Itm=14
* 90-5-18    Motorola     DL137, Rev 2, 3/89
.ends
*$

.subckt MAC210-8        MT2 gate MT1
* "Typical" parameters
X1 MT2 gate MT1 Triac params:
+ Vdrm=600v  Idrm=10u     Ih=6ma       dVdt=100e6  Ton=1.5u
+ Igt=12ma   Vgt=0.9v     Vtm=1.2v     Itm=14
* 90-5-18    Motorola     DL137, Rev 2, 3/89
.ends
*$

.subckt MAC210-10       MT2 gate MT1
* "Typical" parameters
X1 MT2 gate MT1 Triac params:
+ Vdrm=800v  Idrm=10u     Ih=6ma       dVdt=100e6  Ton=1.5u
+ Igt=12ma   Vgt=0.9v     Vtm=1.2v     Itm=14
* 90-5-18    Motorola     DL137, Rev 2, 3/89
.ends
*$

.subckt MAC210-4FP      MT2 gate MT1
* "Typical" parameters
X1 MT2 gate MT1 Triac params:
+ Vdrm=200v  Idrm=10u     Ih=6ma       dVdt=100e6  Ton=1.5u
+ Igt=12ma   Vgt=0.9v     Vtm=1.2v     Itm=14
* 90-5-18    Motorola     DL137, Rev 2, 3/89
.ends
*$

.subckt MAC210-6FP      MT2 gate MT1
* "Typical" parameters
X1 MT2 gate MT1 Triac params:
+ Vdrm=400v  Idrm=10u     Ih=6ma       dVdt=100e6  Ton=1.5u
+ Igt=12ma   Vgt=0.9v     Vtm=1.2v     Itm=14
* 90-5-18    Motorola     DL137, Rev 2, 3/89
.ends
*$

.subckt MAC210-8FP      MT2 gate MT1
* "Typical" parameters
X1 MT2 gate MT1 Triac params:
+ Vdrm=600v  Idrm=10u     Ih=6ma       dVdt=100e6  Ton=1.5u
+ Igt=12ma   Vgt=0.9v     Vtm=1.2v     Itm=14
* 90-5-18    Motorola     DL137, Rev 2, 3/89
.ends
*$

.subckt MAC210-10FP     MT2 gate MT1
* "Typical" parameters
X1 MT2 gate MT1 Triac params:
+ Vdrm=800v  Idrm=10u     Ih=6ma       dVdt=100e6  Ton=1.5u
+ Igt=12ma   Vgt=0.9v     Vtm=1.2v     Itm=14
* 90-5-18    Motorola     DL137, Rev 2, 3/89
.ends
*$

.subckt MAC210A4        MT2 gate MT1
* "Typical" parameters
X1 MT2 gate MT1 Triac params:
+ Vdrm=200v  Idrm=10u     Ih=6ma       dVdt=100e6  Ton=1.5u
+ Igt=12ma   Vgt=0.9v     Vtm=1.2v     Itm=14
* 90-5-18    Motorola     DL137, Rev 2, 3/89
.ends
*$

.subckt MAC210A4FP      MT2 gate MT1
* "Typical" parameters
X1 MT2 gate MT1 Triac params:
+ Vdrm=200v  Idrm=10u     Ih=6ma       dVdt=100e6  Ton=1.5u
+ Igt=12ma   Vgt=0.9v     Vtm=1.2v     Itm=14
* 90-5-18    Motorola     DL137, Rev 2, 3/89
.ends
*$

.subckt MAC210A6        MT2 gate MT1
* "Typical" parameters
X1 MT2 gate MT1 Triac params:
+ Vdrm=400v  Idrm=10u     Ih=6ma       dVdt=100e6  Ton=1.5u
+ Igt=12ma   Vgt=0.9v     Vtm=1.2v     Itm=14
* 90-5-18    Motorola     DL137, Rev 2, 3/89
.ends
*$

.subckt MAC210A6FP      MT2 gate MT1
* "Typical" parameters
X1 MT2 gate MT1 Triac params:
+ Vdrm=400v  Idrm=10u     Ih=6ma       dVdt=100e6  Ton=1.5u
+ Igt=12ma   Vgt=0.9v     Vtm=1.2v     Itm=14
* 90-5-18    Motorola     DL137, Rev 2, 3/89
.ends
*$

.subckt MAC210A8        MT2 gate MT1
* "Typical" parameters
X1 MT2 gate MT1 Triac params:
+ Vdrm=600v  Idrm=10u     Ih=6ma       dVdt=100e6  Ton=1.5u
+ Igt=12ma   Vgt=0.9v     Vtm=1.2v     Itm=14
* 90-5-18    Motorola     DL137, Rev 2, 3/89
.ends
*$

.subckt MAC210A8FP      MT2 gate MT1
* "Typical" parameters
X1 MT2 gate MT1 Triac params:
+ Vdrm=600v  Idrm=10u     Ih=6ma       dVdt=100e6  Ton=1.5u
+ Igt=12ma   Vgt=0.9v     Vtm=1.2v     Itm=14
* 90-5-18    Motorola     DL137, Rev 2, 3/89
.ends
*$

.subckt MAC210A10       MT2 gate MT1
* "Typical" parameters
X1 MT2 gate MT1 Triac params:
+ Vdrm=800v  Idrm=10u     Ih=6ma       dVdt=100e6  Ton=1.5u
+ Igt=12ma   Vgt=0.9v     Vtm=1.2v     Itm=14
* 90-5-18    Motorola     DL137, Rev 2, 3/89
.ends
*$

.subckt MAC210A10FP     MT2 gate MT1
* "Typical" parameters
X1 MT2 gate MT1 Triac params:
+ Vdrm=800v  Idrm=10u     Ih=6ma       dVdt=100e6  Ton=1.5u
+ Igt=12ma   Vgt=0.9v     Vtm=1.2v     Itm=14
* 90-5-18    Motorola     DL137, Rev 2, 3/89
.ends
*$

.subckt MAC212-4        MT2 gate MT1
* "Typical" parameters
X1 MT2 gate MT1 Triac params:
+ Vdrm=200v  Idrm=10u     Ih=6ma       dVdt=100e6  Ton=1.5u
+ Igt=12ma   Vgt=0.9v     Vtm=1.3v     Itm=17
* 90-5-18    Motorola     DL137, Rev 2, 3/89
.ends
*$

.subckt MAC212-6        MT2 gate MT1
* "Typical" parameters
X1 MT2 gate MT1 Triac params:
+ Vdrm=400v  Idrm=10u     Ih=6ma       dVdt=100e6  Ton=1.5u
+ Igt=12ma   Vgt=0.9v     Vtm=1.3v     Itm=17
* 90-5-18    Motorola     DL137, Rev 2, 3/89
.ends
*$

.subckt MAC212-8        MT2 gate MT1
* "Typical" parameters
X1 MT2 gate MT1 Triac params:
+ Vdrm=600v  Idrm=10u     Ih=6ma       dVdt=100e6  Ton=1.5u
+ Igt=12ma   Vgt=0.9v     Vtm=1.3v     Itm=17
* 90-5-18    Motorola     DL137, Rev 2, 3/89
.ends
*$

.subckt MAC212-10       MT2 gate MT1
* "Typical" parameters
X1 MT2 gate MT1 Triac params:
+ Vdrm=800v  Idrm=10u     Ih=6ma       dVdt=100e6  Ton=1.5u
+ Igt=12ma   Vgt=0.9v     Vtm=1.3v     Itm=17
* 90-5-18    Motorola     DL137, Rev 2, 3/89
.ends
*$

.subckt MAC212-4FP      MT2 gate MT1
* "Typical" parameters
X1 MT2 gate MT1 Triac params:
+ Vdrm=200v  Idrm=10u     Ih=6ma       dVdt=100e6  Ton=1.5u
+ Igt=12ma   Vgt=0.9v     Vtm=1.3     Itm=17
* 90-5-18    Motorola     DL137, Rev 2, 3/89
.ends
*$

.subckt MAC212-6FP      MT2 gate MT1
* "Typical" parameters
X1 MT2 gate MT1 Triac params:
+ Vdrm=400v  Idrm=10u     Ih=6ma       dVdt=100e6  Ton=1.5u
+ Igt=12ma   Vgt=0.9v     Vtm=1.3     Itm=17
* 90-5-18    Motorola     DL137, Rev 2, 3/89
.ends
*$

.subckt MAC212-8FP      MT2 gate MT1
* "Typical" parameters
X1 MT2 gate MT1 Triac params:
+ Vdrm=600v  Idrm=10u     Ih=6ma       dVdt=100e6  Ton=1.5u
+ Igt=12ma   Vgt=0.9v     Vtm=1.3     Itm=17
* 90-5-18    Motorola     DL137, Rev 2, 3/89
.ends
*$

.subckt MAC212-10FP     MT2 gate MT1
* "Typical" parameters
X1 MT2 gate MT1 Triac params:
+ Vdrm=800v  Idrm=10u     Ih=6ma       dVdt=100e6  Ton=1.5u
+ Igt=12ma   Vgt=0.9v     Vtm=1.3     Itm=17
* 90-5-18    Motorola     DL137, Rev 2, 3/89
.ends
*$

.subckt MAC212A4        MT2 gate MT1
* "Typical" parameters
X1 MT2 gate MT1 Triac params:
+ Vdrm=200v  Idrm=10u     Ih=6ma       dVdt=100e6  Ton=1.5u
+ Igt=12ma   Vgt=0.9v     Vtm=1.3v     Itm=17
* 90-5-18    Motorola     DL137, Rev 2, 3/89
.ends
*$

.subckt MAC212A4FP      MT2 gate MT1
* "Typical" parameters
X1 MT2 gate MT1 Triac params:
+ Vdrm=200v  Idrm=10u     Ih=6ma       dVdt=100e6  Ton=1.5u
+ Igt=12ma   Vgt=0.9v     Vtm=1.3     Itm=17
* 90-5-18    Motorola     DL137, Rev 2, 3/89
.ends
*$

.subckt MAC212A6        MT2 gate MT1
* "Typical" parameters
X1 MT2 gate MT1 Triac params:
+ Vdrm=400v  Idrm=10u     Ih=6ma       dVdt=100e6  Ton=1.5u
+ Igt=12ma   Vgt=0.9v     Vtm=1.3v     Itm=17
* 90-5-18    Motorola     DL137, Rev 2, 3/89
.ends
*$

.subckt MAC212A6FP      MT2 gate MT1
* "Typical" parameters
X1 MT2 gate MT1 Triac params:
+ Vdrm=400v  Idrm=10u     Ih=6ma       dVdt=100e6  Ton=1.5u
+ Igt=12ma   Vgt=0.9v     Vtm=1.3     Itm=17
* 90-5-18    Motorola     DL137, Rev 2, 3/89
.ends
*$

.subckt MAC212A8        MT2 gate MT1
* "Typical" parameters
X1 MT2 gate MT1 Triac params:
+ Vdrm=600v  Idrm=10u     Ih=6ma       dVdt=100e6  Ton=1.5u
+ Igt=12ma   Vgt=0.9v     Vtm=1.3v     Itm=17
* 90-5-18    Motorola     DL137, Rev 2, 3/89
.ends
*$

.subckt MAC212A8FP      MT2 gate MT1
* "Typical" parameters
X1 MT2 gate MT1 Triac params:
+ Vdrm=600v  Idrm=10u     Ih=6ma       dVdt=100e6  Ton=1.5u
+ Igt=12ma   Vgt=0.9v     Vtm=1.3     Itm=17
* 90-5-18    Motorola     DL137, Rev 2, 3/89
.ends
*$

.subckt MAC212A10       MT2 gate MT1
* "Typical" parameters
X1 MT2 gate MT1 Triac params:
+ Vdrm=800v  Idrm=10u     Ih=6ma       dVdt=100e6  Ton=1.5u
+ Igt=12ma   Vgt=0.9v     Vtm=1.3v     Itm=17
* 90-5-18    Motorola     DL137, Rev 2, 3/89
.ends
*$

.subckt MAC212A10FP     MT2 gate MT1
* "Typical" parameters
X1 MT2 gate MT1 Triac params:
+ Vdrm=800v  Idrm=10u     Ih=6ma       dVdt=100e6  Ton=1.5u
+ Igt=12ma   Vgt=0.9v     Vtm=1.3     Itm=17
* 90-5-18    Motorola     DL137, Rev 2, 3/89
.ends
*$

.subckt MAC213-4        MT2 gate MT1
* Min and Max parameters
X1 MT2 gate MT1 Triac params:
+ Vdrm=200v  Idrm=10u     Ih=100ma     dVdt=200e6  Ton=1.5u
+ Igt=100ma  Vgt=2.0v     Vtm=1.3v     Itm=17
* 90-5-18    Motorola     DL137, Rev 2, 3/89
.ends
*$

.subckt MAC213-6        MT2 gate MT1
* Min and Max parameters
X1 MT2 gate MT1 Triac params:
+ Vdrm=400v  Idrm=10u     Ih=100ma     dVdt=200e6  Ton=1.5u
+ Igt=100ma  Vgt=2.0v     Vtm=1.3v     Itm=17
* 90-5-18    Motorola     DL137, Rev 2, 3/89
.ends
*$

.subckt MAC213-8        MT2 gate MT1
* Min and Max parameters
X1 MT2 gate MT1 Triac params:
+ Vdrm=600v  Idrm=10u     Ih=100ma     dVdt=200e6  Ton=1.5u
+ Igt=100ma  Vgt=2.0v     Vtm=1.3v     Itm=17
* 90-5-18    Motorola     DL137, Rev 2, 3/89
.ends
*$

.subckt MAC213-10       MT2 gate MT1
* Min and Max parameters
X1 MT2 gate MT1 Triac params:
+ Vdrm=800v  Idrm=10u     Ih=100ma     dVdt=200e6  Ton=1.5u
+ Igt=100ma  Vgt=2.0v     Vtm=1.3v     Itm=17
* 90-5-18    Motorola     DL137, Rev 2, 3/89
.ends
*$

.subckt MAC223-4        MT2 gate MT1
* "Typical" parameters
X1 MT2 gate MT1 Triac params:
+ Vdrm=200v  Idrm=10u     Ih=10ma      dVdt=40e6   Ton=1.5u
+ Igt=20ma   Vgt=1.1v     Vtm=1.4v     Itm=35
* 90-5-18    Motorola     DL137, Rev 2, 3/89
.ends
*$

.subckt MAC223-6        MT2 gate MT1
* "Typical" parameters
X1 MT2 gate MT1 Triac params:
+ Vdrm=400v  Idrm=10u     Ih=10ma      dVdt=40e6   Ton=1.5u
+ Igt=20ma   Vgt=1.1v     Vtm=1.4v     Itm=35
* 90-5-18    Motorola     DL137, Rev 2, 3/89
.ends
*$

.subckt MAC223-8        MT2 gate MT1
* "Typical" parameters
X1 MT2 gate MT1 Triac params:
+ Vdrm=600v  Idrm=10u     Ih=10ma      dVdt=40e6   Ton=1.5u
+ Igt=20ma   Vgt=1.1v     Vtm=1.4v     Itm=35
* 90-5-18    Motorola     DL137, Rev 2, 3/89
.ends
*$

.subckt MAC223-10       MT2 gate MT1
* "Typical" parameters
X1 MT2 gate MT1 Triac params:
+ Vdrm=800v  Idrm=10u     Ih=10ma      dVdt=40e6   Ton=1.5u
+ Igt=20ma   Vgt=1.1v     Vtm=1.4v     Itm=35
* 90-5-18    Motorola     DL137, Rev 2, 3/89
.ends
*$

.subckt MAC223-4FP      MT2 gate MT1
* "Typical" parameters
X1 MT2 gate MT1 Triac params:
+ Vdrm=200v  Idrm=10u     Ih=10ma      dVdt=40e6   Ton=1.5u
+ Igt=20ma   Vgt=1.1v     Vtm=1.4v     Itm=35
* 90-5-18    Motorola     DL137, Rev 2, 3/89
.ends
*$

.subckt MAC223-6FP      MT2 gate MT1
* "Typical" parameters
X1 MT2 gate MT1 Triac params:
+ Vdrm=400v  Idrm=10u     Ih=10ma      dVdt=40e6   Ton=1.5u
+ Igt=20ma   Vgt=1.1v     Vtm=1.4v     Itm=35
* 90-5-18    Motorola     DL137, Rev 2, 3/89
.ends
*$

.subckt MAC223-8FP      MT2 gate MT1
* "Typical" parameters
X1 MT2 gate MT1 Triac params:
+ Vdrm=600v  Idrm=10u     Ih=10ma      dVdt=40e6   Ton=1.5u
+ Igt=20ma   Vgt=1.1v     Vtm=1.4v     Itm=35
* 90-5-18    Motorola     DL137, Rev 2, 3/89
.ends
*$

.subckt MAC223-10FP     MT2 gate MT1
* "Typical" parameters
X1 MT2 gate MT1 Triac params:
+ Vdrm=800v  Idrm=10u     Ih=10ma      dVdt=40e6   Ton=1.5u
+ Igt=20ma   Vgt=1.1v     Vtm=1.4v     Itm=35
* 90-5-18    Motorola     DL137, Rev 2, 3/89
.ends
*$

.subckt MAC223A4        MT2 gate MT1
* "Typical" parameters
X1 MT2 gate MT1 Triac params:
+ Vdrm=200v  Idrm=10u     Ih=10ma      dVdt=40e6   Ton=1.5u
+ Igt=20ma   Vgt=1.1v     Vtm=1.4v     Itm=35
* 90-5-18    Motorola     DL137, Rev 2, 3/89
.ends
*$

.subckt MAC223A4FP      MT2 gate MT1
* "Typical" parameters
X1 MT2 gate MT1 Triac params:
+ Vdrm=200v  Idrm=10u     Ih=10ma      dVdt=40e6   Ton=1.5u
+ Igt=20ma   Vgt=1.1v     Vtm=1.4v     Itm=35
* 90-5-18    Motorola     DL137, Rev 2, 3/89
.ends
*$

.subckt MAC223A6        MT2 gate MT1
* "Typical" parameters
X1 MT2 gate MT1 Triac params:
+ Vdrm=400v  Idrm=10u     Ih=10ma      dVdt=40e6   Ton=1.5u
+ Igt=20ma   Vgt=1.1v     Vtm=1.4v     Itm=35
* 90-5-18    Motorola     DL137, Rev 2, 3/89
.ends
*$

.subckt MAC223A6FP      MT2 gate MT1
* "Typical" parameters
X1 MT2 gate MT1 Triac params:
+ Vdrm=400v  Idrm=10u     Ih=10ma      dVdt=40e6   Ton=1.5u
+ Igt=20ma   Vgt=1.1v     Vtm=1.4v     Itm=35
* 90-5-18    Motorola     DL137, Rev 2, 3/89
.ends
*$

.subckt MAC223A8        MT2 gate MT1
* "Typical" parameters
X1 MT2 gate MT1 Triac params:
+ Vdrm=600v  Idrm=10u     Ih=10ma      dVdt=40e6   Ton=1.5u
+ Igt=20ma   Vgt=1.1v     Vtm=1.4v     Itm=35
* 90-5-18    Motorola     DL137, Rev 2, 3/89
.ends
*$

.subckt MAC223A8FP      MT2 gate MT1
* "Typical" parameters
X1 MT2 gate MT1 Triac params:
+ Vdrm=600v  Idrm=10u     Ih=10ma      dVdt=40e6   Ton=1.5u
+ Igt=20ma   Vgt=1.1v     Vtm=1.4v     Itm=35
* 90-5-18    Motorola     DL137, Rev 2, 3/89
.ends
*$

.subckt MAC223A10       MT2 gate MT1
* "Typical" parameters
X1 MT2 gate MT1 Triac params:
+ Vdrm=800v  Idrm=10u     Ih=10ma      dVdt=40e6   Ton=1.5u
+ Igt=20ma   Vgt=1.1v     Vtm=1.4v     Itm=35
* 90-5-18    Motorola     DL137, Rev 2, 3/89
.ends
*$

.subckt MAC223A10FP     MT2 gate MT1
* "Typical" parameters
X1 MT2 gate MT1 Triac params:
+ Vdrm=800v  Idrm=10u     Ih=10ma      dVdt=40e6   Ton=1.5u
+ Igt=20ma   Vgt=1.1v     Vtm=1.4v     Itm=35
* 90-5-18    Motorola     DL137, Rev 2, 3/89
.ends
*$

.subckt MAC224-4        MT2 gate MT1
* "Typical" parameters
X1 MT2 gate MT1 Triac params:
+ Vdrm=200v  Idrm=10u     Ih=30ma      dVdt=50e6   Ton=1.5u
+ Igt=25ma   Vgt=1.1v     Vtm=1.4v     Itm=56
* 90-5-18    Motorola     DL137, Rev 2, 3/89
.ends
*$

.subckt MAC224-6        MT2 gate MT1
* "Typical" parameters
X1 MT2 gate MT1 Triac params:
+ Vdrm=400v  Idrm=10u     Ih=30ma      dVdt=50e6   Ton=1.5u
+ Igt=25ma   Vgt=1.1v     Vtm=1.4v     Itm=56
* 90-5-18    Motorola     DL137, Rev 2, 3/89
.ends
*$

.subckt MAC224-8        MT2 gate MT1
* "Typical" parameters
X1 MT2 gate MT1 Triac params:
+ Vdrm=600v  Idrm=10u     Ih=30ma      dVdt=50e6   Ton=1.5u
+ Igt=25ma   Vgt=1.1v     Vtm=1.4v     Itm=56
* 90-5-18    Motorola     DL137, Rev 2, 3/89
.ends
*$

.subckt MAC224-10       MT2 gate MT1
* "Typical" parameters
X1 MT2 gate MT1 Triac params:
+ Vdrm=800v  Idrm=10u     Ih=30ma      dVdt=50e6   Ton=1.5u
+ Igt=25ma   Vgt=1.1v     Vtm=1.4v     Itm=56
* 90-5-18    Motorola     DL137, Rev 2, 3/89
.ends
*$

.subckt MAC224A4        MT2 gate MT1
* "Typical" parameters
X1 MT2 gate MT1 Triac params:
+ Vdrm=200v  Idrm=10u     Ih=30ma      dVdt=50e6   Ton=1.5u
+ Igt=25ma   Vgt=1.1v     Vtm=1.4v     Itm=56
* 90-5-18    Motorola     DL137, Rev 2, 3/89
.ends
*$

.subckt MAC224A6        MT2 gate MT1
* "Typical" parameters
X1 MT2 gate MT1 Triac params:
+ Vdrm=400v  Idrm=10u     Ih=30ma      dVdt=50e6   Ton=1.5u
+ Igt=25ma   Vgt=1.1v     Vtm=1.4v     Itm=56
* 90-5-18    Motorola     DL137, Rev 2, 3/89
.ends
*$

.subckt MAC224A8        MT2 gate MT1
* "Typical" parameters
X1 MT2 gate MT1 Triac params:
+ Vdrm=600v  Idrm=10u     Ih=30ma      dVdt=50e6   Ton=1.5u
+ Igt=25ma   Vgt=1.1v     Vtm=1.4v     Itm=56
* 90-5-18    Motorola     DL137, Rev 2, 3/89
.ends
*$

.subckt MAC224A10       MT2 gate MT1
* "Typical" parameters
X1 MT2 gate MT1 Triac params:
+ Vdrm=800v  Idrm=10u     Ih=30ma      dVdt=50e6   Ton=1.5u
+ Igt=25ma   Vgt=1.1v     Vtm=1.4v     Itm=56
* 90-5-18    Motorola     DL137, Rev 2, 3/89
.ends
*$

.subckt MAC228-4        MT2 gate MT1
* Min and Max parameters
X1 MT2 gate MT1 Triac params:
+ Vdrm=200v  Idrm=10u     Ih=15ma      dVdt=25e6   Ton=1.5u
+ Igt=5ma    Vgt=2.0v     Vtm=1.8v     Itm=11
* 90-5-18    Motorola     DL137, Rev 2, 3/89
.ends
*$

.subckt MAC228-4FP      MT2 gate MT1
* Min and Max parameters
X1 MT2 gate MT1 Triac params:
+ Vdrm=200v  Idrm=10u     Ih=15ma      dVdt=25e6   Ton=1.5u
+ Igt=5ma    Vgt=2.0v     Vtm=1.8v     Itm=11
* 90-5-18    Motorola     DL137, Rev 2, 3/89
.ends
*$

.subckt MAC228-6        MT2 gate MT1
* Min and Max parameters
X1 MT2 gate MT1 Triac params:
+ Vdrm=400v  Idrm=10u     Ih=15ma      dVdt=25e6   Ton=1.5u
+ Igt=5ma    Vgt=2.0v     Vtm=1.8v     Itm=11
* 90-5-18    Motorola     DL137, Rev 2, 3/89
.ends
*$

.subckt MAC228-6FP      MT2 gate MT1
* Min and Max parameters
X1 MT2 gate MT1 Triac params:
+ Vdrm=400v  Idrm=10u     Ih=15ma      dVdt=25e6   Ton=1.5u
+ Igt=5ma    Vgt=2.0v     Vtm=1.8v     Itm=11
* 90-5-18    Motorola     DL137, Rev 2, 3/89
.ends
*$

.subckt MAC228-8        MT2 gate MT1
* Min and Max parameters