.subckt twisted_pair1024 1 2 3 4 5 6 Len=25 R=53m  C=70p  Cws=118p L=629n  Rs=5.3m G=0
.param N=1024   L1=L/N*Len/2   R1=R/N*Len/2  C1=(C-CWs/2)/N*Len  R2=N/max(0.001f,G)/Len Rs3=Rs/N*Len C2=Cws/N*Len
V1 1 A[0] 0
V2 2 B[0] 0
L1[1] A[0] A[1] {L1} Rser={R1} Rpar={500k*R1} 
L1[2] A[1] A[2] {L1} Rser={R1} Rpar={500k*R1}
L1[3] A[2] A[3] {L1} Rser={R1} Rpar={500k*R1}
L1[4] A[3] A[4] {L1} Rser={R1} Rpar={500k*R1}
L1[5] A[4] A[5] {L1} Rser={R1} Rpar={500k*R1}
L1[6] A[5] A[6] {L1} Rser={R1} Rpar={500k*R1}
L1[7] A[6] A[7] {L1} Rser={R1} Rpar={500k*R1}
L1[8] A[7] A[8] {L1} Rser={R1} Rpar={500k*R1}
L1[9] A[8] A[9] {L1} Rser={R1} Rpar={500k*R1}
L1[10] A[9] A[10] {L1} Rser={R1} Rpar={500k*R1}
L1[11] A[10] A[11] {L1} Rser={R1} Rpar={500k*R1}
L1[12] A[11] A[12] {L1} Rser={R1} Rpar={500k*R1}
L1[13] A[12] A[13] {L1} Rser={R1} Rpar={500k*R1}
L1[14] A[13] A[14] {L1} Rser={R1} Rpar={500k*R1}
L1[15] A[14] A[15] {L1} Rser={R1} Rpar={500k*R1}
L1[16] A[15] A[16] {L1} Rser={R1} Rpar={500k*R1}
L1[17] A[16] A[17] {L1} Rser={R1} Rpar={500k*R1}
L1[18] A[17] A[18] {L1} Rser={R1} Rpar={500k*R1}
L1[19] A[18] A[19] {L1} Rser={R1} Rpar={500k*R1}
L1[20] A[19] A[20] {L1} Rser={R1} Rpar={500k*R1}
L1[21] A[20] A[21] {L1} Rser={R1} Rpar={500k*R1}
L1[22] A[21] A[22] {L1} Rser={R1} Rpar={500k*R1}
L1[23] A[22] A[23] {L1} Rser={R1} Rpar={500k*R1}
L1[24] A[23] A[24] {L1} Rser={R1} Rpar={500k*R1}
L1[25] A[24] A[25] {L1} Rser={R1} Rpar={500k*R1}
L1[26] A[25] A[26] {L1} Rser={R1} Rpar={500k*R1}
L1[27] A[26] A[27] {L1} Rser={R1} Rpar={500k*R1}
L1[28] A[27] A[28] {L1} Rser={R1} Rpar={500k*R1}
L1[29] A[28] A[29] {L1} Rser={R1} Rpar={500k*R1}
L1[30] A[29] A[30] {L1} Rser={R1} Rpar={500k*R1}
L1[31] A[30] A[31] {L1} Rser={R1} Rpar={500k*R1}
L1[32] A[31] A[32] {L1} Rser={R1} Rpar={500k*R1}
L1[33] A[32] A[33] {L1} Rser={R1} Rpar={500k*R1}
L1[34] A[33] A[34] {L1} Rser={R1} Rpar={500k*R1}
L1[35] A[34] A[35] {L1} Rser={R1} Rpar={500k*R1}
L1[36] A[35] A[36] {L1} Rser={R1} Rpar={500k*R1}
L1[37] A[36] A[37] {L1} Rser={R1} Rpar={500k*R1}
L1[38] A[37] A[38] {L1} Rser={R1} Rpar={500k*R1}
L1[39] A[38] A[39] {L1} Rser={R1} Rpar={500k*R1}
L1[40] A[39] A[40] {L1} Rser={R1} Rpar={500k*R1}
L1[41] A[40] A[41] {L1} Rser={R1} Rpar={500k*R1}
L1[42] A[41] A[42] {L1} Rser={R1} Rpar={500k*R1}
L1[43] A[42] A[43] {L1} Rser={R1} Rpar={500k*R1}
L1[44] A[43] A[44] {L1} Rser={R1} Rpar={500k*R1}
L1[45] A[44] A[45] {L1} Rser={R1} Rpar={500k*R1}
L1[46] A[45] A[46] {L1} Rser={R1} Rpar={500k*R1}
L1[47] A[46] A[47] {L1} Rser={R1} Rpar={500k*R1}
L1[48] A[47] A[48] {L1} Rser={R1} Rpar={500k*R1}
L1[49] A[48] A[49] {L1} Rser={R1} Rpar={500k*R1}
L1[50] A[49] A[50] {L1} Rser={R1} Rpar={500k*R1}
L1[51] A[50] A[51] {L1} Rser={R1} Rpar={500k*R1}
L1[52] A[51] A[52] {L1} Rser={R1} Rpar={500k*R1}
L1[53] A[52] A[53] {L1} Rser={R1} Rpar={500k*R1}
L1[54] A[53] A[54] {L1} Rser={R1} Rpar={500k*R1}
L1[55] A[54] A[55] {L1} Rser={R1} Rpar={500k*R1}
L1[56] A[55] A[56] {L1} Rser={R1} Rpar={500k*R1}
L1[57] A[56] A[57] {L1} Rser={R1} Rpar={500k*R1}
L1[58] A[57] A[58] {L1} Rser={R1} Rpar={500k*R1}
L1[59] A[58] A[59] {L1} Rser={R1} Rpar={500k*R1}
L1[60] A[59] A[60] {L1} Rser={R1} Rpar={500k*R1}
L1[61] A[60] A[61] {L1} Rser={R1} Rpar={500k*R1}
L1[62] A[61] A[62] {L1} Rser={R1} Rpar={500k*R1}
L1[63] A[62] A[63] {L1} Rser={R1} Rpar={500k*R1}
L1[64] A[63] A[64] {L1} Rser={R1} Rpar={500k*R1}
L1[65] A[64] A[65] {L1} Rser={R1} Rpar={500k*R1}
L1[66] A[65] A[66] {L1} Rser={R1} Rpar={500k*R1}
L1[67] A[66] A[67] {L1} Rser={R1} Rpar={500k*R1}
L1[68] A[67] A[68] {L1} Rser={R1} Rpar={500k*R1}
L1[69] A[68] A[69] {L1} Rser={R1} Rpar={500k*R1}
L1[70] A[69] A[70] {L1} Rser={R1} Rpar={500k*R1}
L1[71] A[70] A[71] {L1} Rser={R1} Rpar={500k*R1}
L1[72] A[71] A[72] {L1} Rser={R1} Rpar={500k*R1}
L1[73] A[72] A[73] {L1} Rser={R1} Rpar={500k*R1}
L1[74] A[73] A[74] {L1} Rser={R1} Rpar={500k*R1}
L1[75] A[74] A[75] {L1} Rser={R1} Rpar={500k*R1}
L1[76] A[75] A[76] {L1} Rser={R1} Rpar={500k*R1}
L1[77] A[76] A[77] {L1} Rser={R1} Rpar={500k*R1}
L1[78] A[77] A[78] {L1} Rser={R1} Rpar={500k*R1}
L1[79] A[78] A[79] {L1} Rser={R1} Rpar={500k*R1}
L1[80] A[79] A[80] {L1} Rser={R1} Rpar={500k*R1}
L1[81] A[80] A[81] {L1} Rser={R1} Rpar={500k*R1}
L1[82] A[81] A[82] {L1} Rser={R1} Rpar={500k*R1}
L1[83] A[82] A[83] {L1} Rser={R1} Rpar={500k*R1}
L1[84] A[83] A[84] {L1} Rser={R1} Rpar={500k*R1}
L1[85] A[84] A[85] {L1} Rser={R1} Rpar={500k*R1}
L1[86] A[85] A[86] {L1} Rser={R1} Rpar={500k*R1}
L1[87] A[86] A[87] {L1} Rser={R1} Rpar={500k*R1}
L1[88] A[87] A[88] {L1} Rser={R1} Rpar={500k*R1}
L1[89] A[88] A[89] {L1} Rser={R1} Rpar={500k*R1}
L1[90] A[89] A[90] {L1} Rser={R1} Rpar={500k*R1}
L1[91] A[90] A[91] {L1} Rser={R1} Rpar={500k*R1}
L1[92] A[91] A[92] {L1} Rser={R1} Rpar={500k*R1}
L1[93] A[92] A[93] {L1} Rser={R1} Rpar={500k*R1}
L1[94] A[93] A[94] {L1} Rser={R1} Rpar={500k*R1}
L1[95] A[94] A[95] {L1} Rser={R1} Rpar={500k*R1}
L1[96] A[95] A[96] {L1} Rser={R1} Rpar={500k*R1}
L1[97] A[96] A[97] {L1} Rser={R1} Rpar={500k*R1}
L1[98] A[97] A[98] {L1} Rser={R1} Rpar={500k*R1}
L1[99] A[98] A[99] {L1} Rser={R1} Rpar={500k*R1}
L1[100] A[99] A[100] {L1} Rser={R1} Rpar={500k*R1}
L1[101] A[100] A[101] {L1} Rser={R1} Rpar={500k*R1}
L1[102] A[101] A[102] {L1} Rser={R1} Rpar={500k*R1}
L1[103] A[102] A[103] {L1} Rser={R1} Rpar={500k*R1}
L1[104] A[103] A[104] {L1} Rser={R1} Rpar={500k*R1}
L1[105] A[104] A[105] {L1} Rser={R1} Rpar={500k*R1}
L1[106] A[105] A[106] {L1} Rser={R1} Rpar={500k*R1}
L1[107] A[106] A[107] {L1} Rser={R1} Rpar={500k*R1}
L1[108] A[107] A[108] {L1} Rser={R1} Rpar={500k*R1}
L1[109] A[108] A[109] {L1} Rser={R1} Rpar={500k*R1}
L1[110] A[109] A[110] {L1} Rser={R1} Rpar={500k*R1}
L1[111] A[110] A[111] {L1} Rser={R1} Rpar={500k*R1}
L1[112] A[111] A[112] {L1} Rser={R1} Rpar={500k*R1}
L1[113] A[112] A[113] {L1} Rser={R1} Rpar={500k*R1}
L1[114] A[113] A[114] {L1} Rser={R1} Rpar={500k*R1}
L1[115] A[114] A[115] {L1} Rser={R1} Rpar={500k*R1}
L1[116] A[115] A[116] {L1} Rser={R1} Rpar={500k*R1}
L1[117] A[116] A[117] {L1} Rser={R1} Rpar={500k*R1}
L1[118] A[117] A[118] {L1} Rser={R1} Rpar={500k*R1}
L1[119] A[118] A[119] {L1} Rser={R1} Rpar={500k*R1}
L1[120] A[119] A[120] {L1} Rser={R1} Rpar={500k*R1}
L1[121] A[120] A[121] {L1} Rser={R1} Rpar={500k*R1}
L1[122] A[121] A[122] {L1} Rser={R1} Rpar={500k*R1}
L1[123] A[122] A[123] {L1} Rser={R1} Rpar={500k*R1}
L1[124] A[123] A[124] {L1} Rser={R1} Rpar={500k*R1}
L1[125] A[124] A[125] {L1} Rser={R1} Rpar={500k*R1}
L1[126] A[125] A[126] {L1} Rser={R1} Rpar={500k*R1}
L1[127] A[126] A[127] {L1} Rser={R1} Rpar={500k*R1}
L1[128] A[127] A[128] {L1} Rser={R1} Rpar={500k*R1}
L1[129] A[128] A[129] {L1} Rser={R1} Rpar={500k*R1}
L1[130] A[129] A[130] {L1} Rser={R1} Rpar={500k*R1}
L1[131] A[130] A[131] {L1} Rser={R1} Rpar={500k*R1}
L1[132] A[131] A[132] {L1} Rser={R1} Rpar={500k*R1}
L1[133] A[132] A[133] {L1} Rser={R1} Rpar={500k*R1}
L1[134] A[133] A[134] {L1} Rser={R1} Rpar={500k*R1}
L1[135] A[134] A[135] {L1} Rser={R1} Rpar={500k*R1}
L1[136] A[135] A[136] {L1} Rser={R1} Rpar={500k*R1}
L1[137] A[136] A[137] {L1} Rser={R1} Rpar={500k*R1}
L1[138] A[137] A[138] {L1} Rser={R1} Rpar={500k*R1}
L1[139] A[138] A[139] {L1} Rser={R1} Rpar={500k*R1}
L1[140] A[139] A[140] {L1} Rser={R1} Rpar={500k*R1}
L1[141] A[140] A[141] {L1} Rser={R1} Rpar={500k*R1}
L1[142] A[141] A[142] {L1} Rser={R1} Rpar={500k*R1}
L1[143] A[142] A[143] {L1} Rser={R1} Rpar={500k*R1}
L1[144] A[143] A[144] {L1} Rser={R1} Rpar={500k*R1}
L1[145] A[144] A[145] {L1} Rser={R1} Rpar={500k*R1}
L1[146] A[145] A[146] {L1} Rser={R1} Rpar={500k*R1}
L1[147] A[146] A[147] {L1} Rser={R1} Rpar={500k*R1}
L1[148] A[147] A[148] {L1} Rser={R1} Rpar={500k*R1}
L1[149] A[148] A[149] {L1} Rser={R1} Rpar={500k*R1}
L1[150] A[149] A[150] {L1} Rser={R1} Rpar={500k*R1}
L1[151] A[150] A[151] {L1} Rser={R1} Rpar={500k*R1}
L1[152] A[151] A[152] {L1} Rser={R1} Rpar={500k*R1}
L1[153] A[152] A[153] {L1} Rser={R1} Rpar={500k*R1}
L1[154] A[153] A[154] {L1} Rser={R1} Rpar={500k*R1}
L1[155] A[154] A[155] {L1} Rser={R1} Rpar={500k*R1}
L1[156] A[155] A[156] {L1} Rser={R1} Rpar={500k*R1}
L1[157] A[156] A[157] {L1} Rser={R1} Rpar={500k*R1}
L1[158] A[157] A[158] {L1} Rser={R1} Rpar={500k*R1}
L1[159] A[158] A[159] {L1} Rser={R1} Rpar={500k*R1}
L1[160] A[159] A[160] {L1} Rser={R1} Rpar={500k*R1}
L1[161] A[160] A[161] {L1} Rser={R1} Rpar={500k*R1}
L1[162] A[161] A[162] {L1} Rser={R1} Rpar={500k*R1}
L1[163] A[162] A[163] {L1} Rser={R1} Rpar={500k*R1}
L1[164] A[163] A[164] {L1} Rser={R1} Rpar={500k*R1}
L1[165] A[164] A[165] {L1} Rser={R1} Rpar={500k*R1}
L1[166] A[165] A[166] {L1} Rser={R1} Rpar={500k*R1}
L1[167] A[166] A[167] {L1} Rser={R1} Rpar={500k*R1}
L1[168] A[167] A[168] {L1} Rser={R1} Rpar={500k*R1}
L1[169] A[168] A[169] {L1} Rser={R1} Rpar={500k*R1}
L1[170] A[169] A[170] {L1} Rser={R1} Rpar={500k*R1}
L1[171] A[170] A[171] {L1} Rser={R1} Rpar={500k*R1}
L1[172] A[171] A[172] {L1} Rser={R1} Rpar={500k*R1}
L1[173] A[172] A[173] {L1} Rser={R1} Rpar={500k*R1}
L1[174] A[173] A[174] {L1} Rser={R1} Rpar={500k*R1}
L1[175] A[174] A[175] {L1} Rser={R1} Rpar={500k*R1}
L1[176] A[175] A[176] {L1} Rser={R1} Rpar={500k*R1}
L1[177] A[176] A[177] {L1} Rser={R1} Rpar={500k*R1}
L1[178] A[177] A[178] {L1} Rser={R1} Rpar={500k*R1}
L1[179] A[178] A[179] {L1} Rser={R1} Rpar={500k*R1}
L1[180] A[179] A[180] {L1} Rser={R1} Rpar={500k*R1}
L1[181] A[180] A[181] {L1} Rser={R1} Rpar={500k*R1}
L1[182] A[181] A[182] {L1} Rser={R1} Rpar={500k*R1}
L1[183] A[182] A[183] {L1} Rser={R1} Rpar={500k*R1}
L1[184] A[183] A[184] {L1} Rser={R1} Rpar={500k*R1}
L1[185] A[184] A[185] {L1} Rser={R1} Rpar={500k*R1}
L1[186] A[185] A[186] {L1} Rser={R1} Rpar={500k*R1}
L1[187] A[186] A[187] {L1} Rser={R1} Rpar={500k*R1}
L1[188] A[187] A[188] {L1} Rser={R1} Rpar={500k*R1}
L1[189] A[188] A[189] {L1} Rser={R1} Rpar={500k*R1}
L1[190] A[189] A[190] {L1} Rser={R1} Rpar={500k*R1}
L1[191] A[190] A[191] {L1} Rser={R1} Rpar={500k*R1}
L1[192] A[191] A[192] {L1} Rser={R1} Rpar={500k*R1}
L1[193] A[192] A[193] {L1} Rser={R1} Rpar={500k*R1}
L1[194] A[193] A[194] {L1} Rser={R1} Rpar={500k*R1}
L1[195] A[194] A[195] {L1} Rser={R1} Rpar={500k*R1}
L1[196] A[195] A[196] {L1} Rser={R1} Rpar={500k*R1}
L1[197] A[196] A[197] {L1} Rser={R1} Rpar={500k*R1}
L1[198] A[197] A[198] {L1} Rser={R1} Rpar={500k*R1}
L1[199] A[198] A[199] {L1} Rser={R1} Rpar={500k*R1}
L1[200] A[199] A[200] {L1} Rser={R1} Rpar={500k*R1}
L1[201] A[200] A[201] {L1} Rser={R1} Rpar={500k*R1}
L1[202] A[201] A[202] {L1} Rser={R1} Rpar={500k*R1}
L1[203] A[202] A[203] {L1} Rser={R1} Rpar={500k*R1}
L1[204] A[203] A[204] {L1} Rser={R1} Rpar={500k*R1}
L1[205] A[204] A[205] {L1} Rser={R1} Rpar={500k*R1}
L1[206] A[205] A[206] {L1} Rser={R1} Rpar={500k*R1}
L1[207] A[206] A[207] {L1} Rser={R1} Rpar={500k*R1}
L1[208] A[207] A[208] {L1} Rser={R1} Rpar={500k*R1}
L1[209] A[208] A[209] {L1} Rser={R1} Rpar={500k*R1}
L1[210] A[209] A[210] {L1} Rser={R1} Rpar={500k*R1}
L1[211] A[210] A[211] {L1} Rser={R1} Rpar={500k*R1}
L1[212] A[211] A[212] {L1} Rser={R1} Rpar={500k*R1}
L1[213] A[212] A[213] {L1} Rser={R1} Rpar={500k*R1}
L1[214] A[213] A[214] {L1} Rser={R1} Rpar={500k*R1}
L1[215] A[214] A[215] {L1} Rser={R1} Rpar={500k*R1}
L1[216] A[215] A[216] {L1} Rser={R1} Rpar={500k*R1}
L1[217] A[216] A[217] {L1} Rser={R1} Rpar={500k*R1}
L1[218] A[217] A[218] {L1} Rser={R1} Rpar={500k*R1}
L1[219] A[218] A[219] {L1} Rser={R1} Rpar={500k*R1}
L1[220] A[219] A[220] {L1} Rser={R1} Rpar={500k*R1}
L1[221] A[220] A[221] {L1} Rser={R1} Rpar={500k*R1}
L1[222] A[221] A[222] {L1} Rser={R1} Rpar={500k*R1}
L1[223] A[222] A[223] {L1} Rser={R1} Rpar={500k*R1}
L1[224] A[223] A[224] {L1} Rser={R1} Rpar={500k*R1}
L1[225] A[224] A[225] {L1} Rser={R1} Rpar={500k*R1}
L1[226] A[225] A[226] {L1} Rser={R1} Rpar={500k*R1}
L1[227] A[226] A[227] {L1} Rser={R1} Rpar={500k*R1}
L1[228] A[227] A[228] {L1} Rser={R1} Rpar={500k*R1}
L1[229] A[228] A[229] {L1} Rser={R1} Rpar={500k*R1}
L1[230] A[229] A[230] {L1} Rser={R1} Rpar={500k*R1}
L1[231] A[230] A[231] {L1} Rser={R1} Rpar={500k*R1}
L1[232] A[231] A[232] {L1} Rser={R1} Rpar={500k*R1}
L1[233] A[232] A[233] {L1} Rser={R1} Rpar={500k*R1}
L1[234] A[233] A[234] {L1} Rser={R1} Rpar={500k*R1}
L1[235] A[234] A[235] {L1} Rser={R1} Rpar={500k*R1}
L1[236] A[235] A[236] {L1} Rser={R1} Rpar={500k*R1}
L1[237] A[236] A[237] {L1} Rser={R1} Rpar={500k*R1}
L1[238] A[237] A[238] {L1} Rser={R1} Rpar={500k*R1}
L1[239] A[238] A[239] {L1} Rser={R1} Rpar={500k*R1}
L1[240] A[239] A[240] {L1} Rser={R1} Rpar={500k*R1}
L1[241] A[240] A[241] {L1} Rser={R1} Rpar={500k*R1}
L1[242] A[241] A[242] {L1} Rser={R1} Rpar={500k*R1}
L1[243] A[242] A[243] {L1} Rser={R1} Rpar={500k*R1}
L1[244] A[243] A[244] {L1} Rser={R1} Rpar={500k*R1}
L1[245] A[244] A[245] {L1} Rser={R1} Rpar={500k*R1}
L1[246] A[245] A[246] {L1} Rser={R1} Rpar={500k*R1}
L1[247] A[246] A[247] {L1} Rser={R1} Rpar={500k*R1}
L1[248] A[247] A[248] {L1} Rser={R1} Rpar={500k*R1}
L1[249] A[248] A[249] {L1} Rser={R1} Rpar={500k*R1}
L1[250] A[249] A[250] {L1} Rser={R1} Rpar={500k*R1}
L1[251] A[250] A[251] {L1} Rser={R1} Rpar={500k*R1}
L1[252] A[251] A[252] {L1} Rser={R1} Rpar={500k*R1}
L1[253] A[252] A[253] {L1} Rser={R1} Rpar={500k*R1}
L1[254] A[253] A[254] {L1} Rser={R1} Rpar={500k*R1}
L1[255] A[254] A[255] {L1} Rser={R1} Rpar={500k*R1}
L1[256] A[255] A[256] {L1} Rser={R1} Rpar={500k*R1}
L1[257] A[256] A[257] {L1} Rser={R1} Rpar={500k*R1}
L1[258] A[257] A[258] {L1} Rser={R1} Rpar={500k*R1}
L1[259] A[258] A[259] {L1} Rser={R1} Rpar={500k*R1}
L1[260] A[259] A[260] {L1} Rser={R1} Rpar={500k*R1}
L1[261] A[260] A[261] {L1} Rser={R1} Rpar={500k*R1}
L1[262] A[261] A[262] {L1} Rser={R1} Rpar={500k*R1}
L1[263] A[262] A[263] {L1} Rser={R1} Rpar={500k*R1}
L1[264] A[263] A[264] {L1} Rser={R1} Rpar={500k*R1}
L1[265] A[264] A[265] {L1} Rser={R1} Rpar={500k*R1}
L1[266] A[265] A[266] {L1} Rser={R1} Rpar={500k*R1}
L1[267] A[266] A[267] {L1} Rser={R1} Rpar={500k*R1}
L1[268] A[267] A[268] {L1} Rser={R1} Rpar={500k*R1}
L1[269] A[268] A[269] {L1} Rser={R1} Rpar={500k*R1}
L1[270] A[269] A[270] {L1} Rser={R1} Rpar={500k*R1}
L1[271] A[270] A[271] {L1} Rser={R1} Rpar={500k*R1}
L1[272] A[271] A[272] {L1} Rser={R1} Rpar={500k*R1}
L1[273] A[272] A[273] {L1} Rser={R1} Rpar={500k*R1}
L1[274] A[273] A[274] {L1} Rser={R1} Rpar={500k*R1}
L1[275] A[274] A[275] {L1} Rser={R1} Rpar={500k*R1}
L1[276] A[275] A[276] {L1} Rser={R1} Rpar={500k*R1}
L1[277] A[276] A[277] {L1} Rser={R1} Rpar={500k*R1}
L1[278] A[277] A[278] {L1} Rser={R1} Rpar={500k*R1}
L1[279] A[278] A[279] {L1} Rser={R1} Rpar={500k*R1}
L1[280] A[279] A[280] {L1} Rser={R1} Rpar={500k*R1}
L1[281] A[280] A[281] {L1} Rser={R1} Rpar={500k*R1}
L1[282] A[281] A[282] {L1} Rser={R1} Rpar={500k*R1}
L1[283] A[282] A[283] {L1} Rser={R1} Rpar={500k*R1}
L1[284] A[283] A[284] {L1} Rser={R1} Rpar={500k*R1}
L1[285] A[284] A[285] {L1} Rser={R1} Rpar={500k*R1}
L1[286] A[285] A[286] {L1} Rser={R1} Rpar={500k*R1}
L1[287] A[286] A[287] {L1} Rser={R1} Rpar={500k*R1}
L1[288] A[287] A[288] {L1} Rser={R1} Rpar={500k*R1}
L1[289] A[288] A[289] {L1} Rser={R1} Rpar={500k*R1}
L1[290] A[289] A[290] {L1} Rser={R1} Rpar={500k*R1}
L1[291] A[290] A[291] {L1} Rser={R1} Rpar={500k*R1}
L1[292] A[291] A[292] {L1} Rser={R1} Rpar={500k*R1}
L1[293] A[292] A[293] {L1} Rser={R1} Rpar={500k*R1}
L1[294] A[293] A[294] {L1} Rser={R1} Rpar={500k*R1}
L1[295] A[294] A[295] {L1} Rser={R1} Rpar={500k*R1}
L1[296] A[295] A[296] {L1} Rser={R1} Rpar={500k*R1}
L1[297] A[296] A[297] {L1} Rser={R1} Rpar={500k*R1}
L1[298] A[297] A[298] {L1} Rser={R1} Rpar={500k*R1}
L1[299] A[298] A[299] {L1} Rser={R1} Rpar={500k*R1}
L1[300] A[299] A[300] {L1} Rser={R1} Rpar={500k*R1}
L1[301] A[300] A[301] {L1} Rser={R1} Rpar={500k*R1}
L1[302] A[301] A[302] {L1} Rser={R1} Rpar={500k*R1}
L1[303] A[302] A[303] {L1} Rser={R1} Rpar={500k*R1}
L1[304] A[303] A[304] {L1} Rser={R1} Rpar={500k*R1}
L1[305] A[304] A[305] {L1} Rser={R1} Rpar={500k*R1}
L1[306] A[305] A[306] {L1} Rser={R1} Rpar={500k*R1}
L1[307] A[306] A[307] {L1} Rser={R1} Rpar={500k*R1}
L1[308] A[307] A[308] {L1} Rser={R1} Rpar={500k*R1}
L1[309] A[308] A[309] {L1} Rser={R1} Rpar={500k*R1}
L1[310] A[309] A[310] {L1} Rser={R1} Rpar={500k*R1}
L1[311] A[310] A[311] {L1} Rser={R1} Rpar={500k*R1}
L1[312] A[311] A[312] {L1} Rser={R1} Rpar={500k*R1}
L1[313] A[312] A[313] {L1} Rser={R1} Rpar={500k*R1}
L1[314] A[313] A[314] {L1} Rser={R1} Rpar={500k*R1}
L1[315] A[314] A[315] {L1} Rser={R1} Rpar={500k*R1}
L1[316] A[315] A[316] {L1} Rser={R1} Rpar={500k*R1}
L1[317] A[316] A[317] {L1} Rser={R1} Rpar={500k*R1}
L1[318] A[317] A[318] {L1} Rser={R1} Rpar={500k*R1}
L1[319] A[318] A[319] {L1} Rser={R1} Rpar={500k*R1}
L1[320] A[319] A[320] {L1} Rser={R1} Rpar={500k*R1}
L1[321] A[320] A[321] {L1} Rser={R1} Rpar={500k*R1}
L1[322] A[321] A[322] {L1} Rser={R1} Rpar={500k*R1}
L1[323] A[322] A[323] {L1} Rser={R1} Rpar={500k*R1}
L1[324] A[323] A[324] {L1} Rser={R1} Rpar={500k*R1}
L1[325] A[324] A[325] {L1} Rser={R1} Rpar={500k*R1}
L1[326] A[325] A[326] {L1} Rser={R1} Rpar={500k*R1}
L1[327] A[326] A[327] {L1} Rser={R1} Rpar={500k*R1}
L1[328] A[327] A[328] {L1} Rser={R1} Rpar={500k*R1}
L1[329] A[328] A[329] {L1} Rser={R1} Rpar={500k*R1}
L1[330] A[329] A[330] {L1} Rser={R1} Rpar={500k*R1}
L1[331] A[330] A[331] {L1} Rser={R1} Rpar={500k*R1}
L1[332] A[331] A[332] {L1} Rser={R1} Rpar={500k*R1}
L1[333] A[332] A[333] {L1} Rser={R1} Rpar={500k*R1}
L1[334] A[333] A[334] {L1} Rser={R1} Rpar={500k*R1}
L1[335] A[334] A[335] {L1} Rser={R1} Rpar={500k*R1}
L1[336] A[335] A[336] {L1} Rser={R1} Rpar={500k*R1}
L1[337] A[336] A[337] {L1} Rser={R1} Rpar={500k*R1}
L1[338] A[337] A[338] {L1} Rser={R1} Rpar={500k*R1}
L1[339] A[338] A[339] {L1} Rser={R1} Rpar={500k*R1}
L1[340] A[339] A[340] {L1} Rser={R1} Rpar={500k*R1}
L1[341] A[340] A[341] {L1} Rser={R1} Rpar={500k*R1}
L1[342] A[341] A[342] {L1} Rser={R1} Rpar={500k*R1}
L1[343] A[342] A[343] {L1} Rser={R1} Rpar={500k*R1}
L1[344] A[343] A[344] {L1} Rser={R1} Rpar={500k*R1}
L1[345] A[344] A[345] {L1} Rser={R1} Rpar={500k*R1}
L1[346] A[345] A[346] {L1} Rser={R1} Rpar={500k*R1}
L1[347] A[346] A[347] {L1} Rser={R1} Rpar={500k*R1}
L1[348] A[347] A[348] {L1} Rser={R1} Rpar={500k*R1}
L1[349] A[348] A[349] {L1} Rser={R1} Rpar={500k*R1}
L1[350] A[349] A[350] {L1} Rser={R1} Rpar={500k*R1}
L1[351] A[350] A[351] {L1} Rser={R1} Rpar={500k*R1}
L1[352] A[351] A[352] {L1} Rser={R1} Rpar={500k*R1}
L1[353] A[352] A[353] {L1} Rser={R1} Rpar={500k*R1}
L1[354] A[353] A[354] {L1} Rser={R1} Rpar={500k*R1}
L1[355] A[354] A[355] {L1} Rser={R1} Rpar={500k*R1}
L1[356] A[355] A[356] {L1} Rser={R1} Rpar={500k*R1}
L1[357] A[356] A[357] {L1} Rser={R1} Rpar={500k*R1}
L1[358] A[357] A[358] {L1} Rser={R1} Rpar={500k*R1}
L1[359] A[358] A[359] {L1} Rser={R1} Rpar={500k*R1}
L1[360] A[359] A[360] {L1} Rser={R1} Rpar={500k*R1}
L1[361] A[360] A[361] {L1} Rser={R1} Rpar={500k*R1}
L1[362] A[361] A[362] {L1} Rser={R1} Rpar={500k*R1}
L1[363] A[362] A[363] {L1} Rser={R1} Rpar={500k*R1}
L1[364] A[363] A[364] {L1} Rser={R1} Rpar={500k*R1}
L1[365] A[364] A[365] {L1} Rser={R1} Rpar={500k*R1}
L1[366] A[365] A[366] {L1} Rser={R1} Rpar={500k*R1}
L1[367] A[366] A[367] {L1} Rser={R1} Rpar={500k*R1}
L1[368] A[367] A[368] {L1} Rser={R1} Rpar={500k*R1}
L1[369] A[368] A[369] {L1} Rser={R1} Rpar={500k*R1}
L1[370] A[369] A[370] {L1} Rser={R1} Rpar={500k*R1}
L1[371] A[370] A[371] {L1} Rser={R1} Rpar={500k*R1}
L1[372] A[371] A[372] {L1} Rser={R1} Rpar={500k*R1}
L1[373] A[372] A[373] {L1} Rser={R1} Rpar={500k*R1}
L1[374] A[373] A[374] {L1} Rser={R1} Rpar={500k*R1}
L1[375] A[374] A[375] {L1} Rser={R1} Rpar={500k*R1}
L1[376] A[375] A[376] {L1} Rser={R1} Rpar={500k*R1}
L1[377] A[376] A[377] {L1} Rser={R1} Rpar={500k*R1}
L1[378] A[377] A[378] {L1} Rser={R1} Rpar={500k*R1}
L1[379] A[378] A[379] {L1} Rser={R1} Rpar={500k*R1}
L1[380] A[379] A[380] {L1} Rser={R1} Rpar={500k*R1}
L1[381] A[380] A[381] {L1} Rser={R1} Rpar={500k*R1}
L1[382] A[381] A[382] {L1} Rser={R1} Rpar={500k*R1}
L1[383] A[382] A[383] {L1} Rser={R1} Rpar={500k*R1}
L1[384] A[383] A[384] {L1} Rser={R1} Rpar={500k*R1}
L1[385] A[384] A[385] {L1} Rser={R1} Rpar={500k*R1}
L1[386] A[385] A[386] {L1} Rser={R1} Rpar={500k*R1}
L1[387] A[386] A[387] {L1} Rser={R1} Rpar={500k*R1}
L1[388] A[387] A[388] {L1} Rser={R1} Rpar={500k*R1}
L1[389] A[388] A[389] {L1} Rser={R1} Rpar={500k*R1}
L1[390] A[389] A[390] {L1} Rser={R1} Rpar={500k*R1}
L1[391] A[390] A[391] {L1} Rser={R1} Rpar={500k*R1}
L1[392] A[391] A[392] {L1} Rser={R1} Rpar={500k*R1}
L1[393] A[392] A[393] {L1} Rser={R1} Rpar={500k*R1}
L1[394] A[393] A[394] {L1} Rser={R1} Rpar={500k*R1}
L1[395] A[394] A[395] {L1} Rser={R1} Rpar={500k*R1}
L1[396] A[395] A[396] {L1} Rser={R1} Rpar={500k*R1}
L1[397] A[396] A[397] {L1} Rser={R1} Rpar={500k*R1}
L1[398] A[397] A[398] {L1} Rser={R1} Rpar={500k*R1}
L1[399] A[398] A[399] {L1} Rser={R1} Rpar={500k*R1}
L1[400] A[399] A[400] {L1} Rser={R1} Rpar={500k*R1}
L1[401] A[400] A[401] {L1} Rser={R1} Rpar={500k*R1}
L1[402] A[401] A[402] {L1} Rser={R1} Rpar={500k*R1}
L1[403] A[402] A[403] {L1} Rser={R1} Rpar={500k*R1}
L1[404] A[403] A[404] {L1} Rser={R1} Rpar={500k*R1}
L1[405] A[404] A[405] {L1} Rser={R1} Rpar={500k*R1}
L1[406] A[405] A[406] {L1} Rser={R1} Rpar={500k*R1}
L1[407] A[406] A[407] {L1} Rser={R1} Rpar={500k*R1}
L1[408] A[407] A[408] {L1} Rser={R1} Rpar={500k*R1}
L1[409] A[408] A[409] {L1} Rser={R1} Rpar={500k*R1}
L1[410] A[409] A[410] {L1} Rser={R1} Rpar={500k*R1}
L1[411] A[410] A[411] {L1} Rser={R1} Rpar={500k*R1}
L1[412] A[411] A[412] {L1} Rser={R1} Rpar={500k*R1}
L1[413] A[412] A[413] {L1} Rser={R1} Rpar={500k*R1}
L1[414] A[413] A[414] {L1} Rser={R1} Rpar={500k*R1}
L1[415] A[414] A[415] {L1} Rser={R1} Rpar={500k*R1}
L1[416] A[415] A[416] {L1} Rser={R1} Rpar={500k*R1}
L1[417] A[416] A[417] {L1} Rser={R1} Rpar={500k*R1}
L1[418] A[417] A[418] {L1} Rser={R1} Rpar={500k*R1}
L1[419] A[418] A[419] {L1} Rser={R1} Rpar={500k*R1}
L1[420] A[419] A[420] {L1} Rser={R1} Rpar={500k*R1}
L1[421] A[420] A[421] {L1} Rser={R1} Rpar={500k*R1}
L1[422] A[421] A[422] {L1} Rser={R1} Rpar={500k*R1}
L1[423] A[422] A[423] {L1} Rser={R1} Rpar={500k*R1}
L1[424] A[423] A[424] {L1} Rser={R1} Rpar={500k*R1}
L1[425] A[424] A[425] {L1} Rser={R1} Rpar={500k*R1}
L1[426] A[425] A[426] {L1} Rser={R1} Rpar={500k*R1}
L1[427] A[426] A[427] {L1} Rser={R1} Rpar={500k*R1}
L1[428] A[427] A[428] {L1} Rser={R1} Rpar={500k*R1}
L1[429] A[428] A[429] {L1} Rser={R1} Rpar={500k*R1}
L1[430] A[429] A[430] {L1} Rser={R1} Rpar={500k*R1}
L1[431] A[430] A[431] {L1} Rser={R1} Rpar={500k*R1}
L1[432] A[431] A[432] {L1} Rser={R1} Rpar={500k*R1}
L1[433] A[432] A[433] {L1} Rser={R1} Rpar={500k*R1}
L1[434] A[433] A[434] {L1} Rser={R1} Rpar={500k*R1}
L1[435] A[434] A[435] {L1} Rser={R1} Rpar={500k*R1}
L1[436] A[435] A[436] {L1} Rser={R1} Rpar={500k*R1}
L1[437] A[436] A[437] {L1} Rser={R1} Rpar={500k*R1}
L1[438] A[437] A[438] {L1} Rser={R1} Rpar={500k*R1}
L1[439] A[438] A[439] {L1} Rser={R1} Rpar={500k*R1}
L1[440] A[439] A[440] {L1} Rser={R1} Rpar={500k*R1}
L1[441] A[440] A[441] {L1} Rser={R1} Rpar={500k*R1}
L1[442] A[441] A[442] {L1} Rser={R1} Rpar={500k*R1}
L1[443] A[442] A[443] {L1} Rser={R1} Rpar={500k*R1}
L1[444] A[443] A[444] {L1} Rser={R1} Rpar={500k*R1}
L1[445] A[444] A[445] {L1} Rser={R1} Rpar={500k*R1}
L1[446] A[445] A[446] {L1} Rser={R1} Rpar={500k*R1}
L1[447] A[446] A[447] {L1} Rser={R1} Rpar={500k*R1}
L1[448] A[447] A[448] {L1} Rser={R1} Rpar={500k*R1}
L1[449] A[448] A[449] {L1} Rser={R1} Rpar={500k*R1}
L1[450] A[449] A[450] {L1} Rser={R1} Rpar={500k*R1}
L1[451] A[450] A[451] {L1} Rser={R1} Rpar={500k*R1}
L1[452] A[451] A[452] {L1} Rser={R1} Rpar={500k*R1}
L1[453] A[452] A[453] {L1} Rser={R1} Rpar={500k*R1}
L1[454] A[453] A[454] {L1} Rser={R1} Rpar={500k*R1}
L1[455] A[454] A[455] {L1} Rser={R1} Rpar={500k*R1}
L1[456] A[455] A[456] {L1} Rser={R1} Rpar={500k*R1}
L1[457] A[456] A[457] {L1} Rser={R1} Rpar={500k*R1}
L1[458] A[457] A[458] {L1} Rser={R1} Rpar={500k*R1}
L1[459] A[458] A[459] {L1} Rser={R1} Rpar={500k*R1}
L1[460] A[459] A[460] {L1} Rser={R1} Rpar={500k*R1}
L1[461] A[460] A[461] {L1} Rser={R1} Rpar={500k*R1}
L1[462] A[461] A[462] {L1} Rser={R1} Rpar={500k*R1}
L1[463] A[462] A[463] {L1} Rser={R1} Rpar={500k*R1}
L1[464] A[463] A[464] {L1} Rser={R1} Rpar={500k*R1}
L1[465] A[464] A[465] {L1} Rser={R1} Rpar={500k*R1}
L1[466] A[465] A[466] {L1} Rser={R1} Rpar={500k*R1}
L1[467] A[466] A[467] {L1} Rser={R1} Rpar={500k*R1}
L1[468] A[467] A[468] {L1} Rser={R1} Rpar={500k*R1}
L1[469] A[468] A[469] {L1} Rser={R1} Rpar={500k*R1}
L1[470] A[469] A[470] {L1} Rser={R1} Rpar={500k*R1}
L1[471] A[470] A[471] {L1} Rser={R1} Rpar={500k*R1}
L1[472] A[471] A[472] {L1} Rser={R1} Rpar={500k*R1}
L1[473] A[472] A[473] {L1} Rser={R1} Rpar={500k*R1}
L1[474] A[473] A[474] {L1} Rser={R1} Rpar={500k*R1}
L1[475] A[474] A[475] {L1} Rser={R1} Rpar={500k*R1}
L1[476] A[475] A[476] {L1} Rser={R1} Rpar={500k*R1}
L1[477] A[476] A[477] {L1} Rser={R1} Rpar={500k*R1}
L1[478] A[477] A[478] {L1} Rser={R1} Rpar={500k*R1}
L1[479] A[478] A[479] {L1} Rser={R1} Rpar={500k*R1}
L1[480] A[479] A[480] {L1} Rser={R1} Rpar={500k*R1}
L1[481] A[480] A[481] {L1} Rser={R1} Rpar={500k*R1}
L1[482] A[481] A[482] {L1} Rser={R1} Rpar={500k*R1}
L1[483] A[482] A[483] {L1} Rser={R1} Rpar={500k*R1}
L1[484] A[483] A[484] {L1} Rser={R1} Rpar={500k*R1}
L1[485] A[484] A[485] {L1} Rser={R1} Rpar={500k*R1}
L1[486] A[485] A[486] {L1} Rser={R1} Rpar={500k*R1}
L1[487] A[486] A[487] {L1} Rser={R1} Rpar={500k*R1}
L1[488] A[487] A[488] {L1} Rser={R1} Rpar={500k*R1}
L1[489] A[488] A[489] {L1} Rser={R1} Rpar={500k*R1}
L1[490] A[489] A[490] {L1} Rser={R1} Rpar={500k*R1}
L1[491] A[490] A[491] {L1} Rser={R1} Rpar={500k*R1}
L1[492] A[491] A[492] {L1} Rser={R1} Rpar={500k*R1}
L1[493] A[492] A[493] {L1} Rser={R1} Rpar={500k*R1}
L1[494] A[493] A[494] {L1} Rser={R1} Rpar={500k*R1}
L1[495] A[494] A[495] {L1} Rser={R1} Rpar={500k*R1}
L1[496] A[495] A[496] {L1} Rser={R1} Rpar={500k*R1}
L1[497] A[496] A[497] {L1} Rser={R1} Rpar={500k*R1}
L1[498] A[497] A[498] {L1} Rser={R1} Rpar={500k*R1}
L1[499] A[498] A[499] {L1} Rser={R1} Rpar={500k*R1}
L1[500] A[499] A[500] {L1} Rser={R1} Rpar={500k*R1}
L1[501] A[500] A[501] {L1} Rser={R1} Rpar={500k*R1}
L1[502] A[501] A[502] {L1} Rser={R1} Rpar={500k*R1}
L1[503] A[502] A[503] {L1} Rser={R1} Rpar={500k*R1}
L1[504] A[503] A[504] {L1} Rser={R1} Rpar={500k*R1}
L1[505] A[504] A[505] {L1} Rser={R1} Rpar={500k*R1}
L1[506] A[505] A[506] {L1} Rser={R1} Rpar={500k*R1}
L1[507] A[506] A[507] {L1} Rser={R1} Rpar={500k*R1}
L1[508] A[507] A[508] {L1} Rser={R1} Rpar={500k*R1}
L1[509] A[508] A[509] {L1} Rser={R1} Rpar={500k*R1}
L1[510] A[509] A[510] {L1} Rser={R1} Rpar={500k*R1}
L1[511] A[510] A[511] {L1} Rser={R1} Rpar={500k*R1}
L1[512] A[511] A[512] {L1} Rser={R1} Rpar={500k*R1}
L1[513] A[512] A[513] {L1} Rser={R1} Rpar={500k*R1}
L1[514] A[513] A[514] {L1} Rser={R1} Rpar={500k*R1}
L1[515] A[514] A[515] {L1} Rser={R1} Rpar={500k*R1}
L1[516] A[515] A[516] {L1} Rser={R1} Rpar={500k*R1}
L1[517] A[516] A[517] {L1} Rser={R1} Rpar={500k*R1}
L1[518] A[517] A[518] {L1} Rser={R1} Rpar={500k*R1}
L1[519] A[518] A[519] {L1} Rser={R1} Rpar={500k*R1}
L1[520] A[519] A[520] {L1} Rser={R1} Rpar={500k*R1}
L1[521] A[520] A[521] {L1} Rser={R1} Rpar={500k*R1}
L1[522] A[521] A[522] {L1} Rser={R1} Rpar={500k*R1}
L1[523] A[522] A[523] {L1} Rser={R1} Rpar={500k*R1}
L1[524] A[523] A[524] {L1} Rser={R1} Rpar={500k*R1}
L1[525] A[524] A[525] {L1} Rser={R1} Rpar={500k*R1}
L1[526] A[525] A[526] {L1} Rser={R1} Rpar={500k*R1}
L1[527] A[526] A[527] {L1} Rser={R1} Rpar={500k*R1}
L1[528] A[527] A[528] {L1} Rser={R1} Rpar={500k*R1}
L1[529] A[528] A[529] {L1} Rser={R1} Rpar={500k*R1}
L1[530] A[529] A[530] {L1} Rser={R1} Rpar={500k*R1}
L1[531] A[530] A[531] {L1} Rser={R1} Rpar={500k*R1}
L1[532] A[531] A[532] {L1} Rser={R1} Rpar={500k*R1}
L1[533] A[532] A[533] {L1} Rser={R1} Rpar={500k*R1}
L1[534] A[533] A[534] {L1} Rser={R1} Rpar={500k*R1}
L1[535] A[534] A[535] {L1} Rser={R1} Rpar={500k*R1}
L1[536] A[535] A[536] {L1} Rser={R1} Rpar={500k*R1}
L1[537] A[536] A[537] {L1} Rser={R1} Rpar={500k*R1}
L1[538] A[537] A[538] {L1} Rser={R1} Rpar={500k*R1}
L1[539] A[538] A[539] {L1} Rser={R1} Rpar={500k*R1}
L1[540] A[539] A[540] {L1} Rser={R1} Rpar={500k*R1}
L1[541] A[540] A[541] {L1} Rser={R1} Rpar={500k*R1}
L1[542] A[541] A[542] {L1} Rser={R1} Rpar={500k*R1}
L1[543] A[542] A[543] {L1} Rser={R1} Rpar={500k*R1}
L1[544] A[543] A[544] {L1} Rser={R1} Rpar={500k*R1}
L1[545] A[544] A[545] {L1} Rser={R1} Rpar={500k*R1}
L1[546] A[545] A[546] {L1} Rser={R1} Rpar={500k*R1}
L1[547] A[546] A[547] {L1} Rser={R1} Rpar={500k*R1}
L1[548] A[547] A[548] {L1} Rser={R1} Rpar={500k*R1}
L1[549] A[548] A[549] {L1} Rser={R1} Rpar={500k*R1}
L1[550] A[549] A[550] {L1} Rser={R1} Rpar={500k*R1}
L1[551] A[550] A[551] {L1} Rser={R1} Rpar={500k*R1}
L1[552] A[551] A[552] {L1} Rser={R1} Rpar={500k*R1}
L1[553] A[552] A[553] {L1} Rser={R1} Rpar={500k*R1}
L1[554] A[553] A[554] {L1} Rser={R1} Rpar={500k*R1}
L1[555] A[554] A[555] {L1} Rser={R1} Rpar={500k*R1}
L1[556] A[555] A[556] {L1} Rser={R1} Rpar={500k*R1}
L1[557] A[556] A[557] {L1} Rser={R1} Rpar={500k*R1}
L1[558] A[557] A[558] {L1} Rser={R1} Rpar={500k*R1}
L1[559] A[558] A[559] {L1} Rser={R1} Rpar={500k*R1}
L1[560] A[559] A[560] {L1} Rser={R1} Rpar={500k*R1}
L1[561] A[560] A[561] {L1} Rser={R1} Rpar={500k*R1}
L1[562] A[561] A[562] {L1} Rser={R1} Rpar={500k*R1}
L1[563] A[562] A[563] {L1} Rser={R1} Rpar={500k*R1}
L1[564] A[563] A[564] {L1} Rser={R1} Rpar={500k*R1}
L1[565] A[564] A[565] {L1} Rser={R1} Rpar={500k*R1}
L1[566] A[565] A[566] {L1} Rser={R1} Rpar={500k*R1}
L1[567] A[566] A[567] {L1} Rser={R1} Rpar={500k*R1}