* C:\Program Files\LTC\SwCADIII\My circuits\+-Vsource\Draft2.asc
* block symbol definitions
.subckt v+&- V+ V- GND
V1 V+ 0 {VNP}
V2 0 V- {VNP}
.backanno
.ends v+&-


