Librería de válvulas termoiónicas. Reunida corregida y aumentada por Robertugo_2005.
* El prefijo NH, denota un subcircuito sin filamento modelado (No Heater)
* El sufijo DM, identifica a los modelos de Duncan Munro;el sufijo RY hace lo propio para los
* modelos de Charles RYDEL, en éstos el sufijo TR, significa que el subcircuito modela a una
* válvula tetrodo o pentodo como triodo, también están los modelos de Drew Bolce, con el sufijo
* DB y para finalizar los  modelos derivados de  Norman Koren, Eric Vannerson
* y otros; todos reunidos gracias a Internet.
*	*	*	*	*	*	*	*	*	*	*	*	*	*	*	*	
* Connections: Plate
*              | Cathode
*              | |
.SUBCKT 5AR4   P K
GP  P  K  VALUE={3.96E-3*(PWR(V(P,K),1.5)+PWRS(V(P,K),1.5))/2}
.ENDS 5AR4
*	*	*	*	*	*	*	*	*
.SUBCKT 5AR4RY 1 2 3
* A1 A2 C
X1 1 2 3 VALVE1 G=3.924m
.ENDS
.SUBCKT GZ34RY 1 2 3
X1 1 2 3 5AR4RY
.ENDS
*	*	*	*	*	*	*	*	*
* 5U4GB pspice rectifier model
*
* The following parameters are not modelled:
*
*   (1) Filament and filament warmup time
*   (2) Reverse voltage breakdown
*   (3) Saturation
*   (4) Interelectrode capacitance
*
* Please note that this model is provided "as is" and
* no warranty is provided in respect of its suitability
* for any application.
*
* 5U4GB maximum ratings:
*
*   PIV     1550V
*   Max in  550V RMS
*   Ia pk   1000mA repetitive  (4600mA transient)
*
*
*             .----- Anode
*             | .--- Cathode
*             | |
.SUBCKT 5U4GB A K
GP  A  K  VALUE={7.55E-4*(PWR(V(A,K),1.5)+PWRS(V(A,K),1.5))/2}
.ENDS 5U4GB
*	*	*	*	*	*	*	*	*
.SUBCKT 5U4GBRY 1 2 3
* A1 A2 C
X1 1 2 3 VALVE1 G=.755m
.ENDS
*	*	*	*	*	*	*	*	*
* 5V3A pspice rectifier model
*
* The following parameters are not modelled:
*
*   (1) Filament and filament warmup time
*   (2) Reverse voltage breakdown
*   (3) Saturation
*   (4) Interelectrode capacitance
*
* Please note that this model is provided "as is" and
* no warranty is provided in respect of its suitability
* for any application.
*
* 5V3A maximum ratings:
*
*   PIV     1550V
*   Max in  550V RMS
*   Iout    550mA DC output current
*   Ia pk   1400mA repetitive  (6600mA transient)
*
*
*            .----- Anode
*            | .--- Cathode
*            | |
.SUBCKT 5V3A A K
GP  A  K  VALUE={1.287E-3*(PWR(V(A,K),1.5)+PWRS(V(A,K),1.5))/2}
.ENDS 5V3A
*	*	*	*	*	*	*	*	*
.SUBCKT 5V3ARY 1 2 3
* A1 A2 C
X1 1 2 3 VALVE1 G=1.287m
.ENDS
*	*	*	*	*	*	*	*	*
* 5V4GA pspice rectifier model
*
* The following parameters are not modelled:
*
*   (1) Filament and filament warmup time
*   (2) Reverse voltage breakdown
*   (3) Saturation
*   (4) Interelectrode capacitance
*
* Please note that this model is provided "as is" and
* no warranty is provided in respect of its suitability
* for any application.
*
* 5V4GA maximum ratings:
*
*   PIV     1400V
*   Ia pk   525mA repetitive  (3500mA transient)
*
*
*             .----- Anode
*             | .--- Cathode
*             | |
.SUBCKT 5V4GA A K
GP  A  K  VALUE={1.4E-3*(PWR(V(A,K),1.5)+PWRS(V(A,K),1.5))/2}
.ENDS 5V4GA
*	*	*	*	*	*	*	*	*
.SUBCKT 5V4RY 1 2 3
* A1 A2 C
X1 1 2 3 VALVE1 G=1.76m
.ENDS
*	*	*	*	*	*	*	*	*
.SUBCKT GZ32RY 1 2 3
* A1 A2 C
X1 1 2 3 5V4RY
.ENDS
*	*	*	*	*	*	*	*	*
* 5Y3GT pspice rectifier model
*
* The following parameters are not modelled:
*
*   (1) Filament and filament warmup time
*   (2) Reverse voltage breakdown
*   (3) Saturation
*   (4) Interelectrode capacitance
*
* Please note that this model is provided "as is" and
* no warranty is provided in respect of its suitability
* for any application.
*
* 5Y3GT maximum ratings:
*
*   PIV     1400V
*   Max in  500V RMS
*   Iout    42mA DC output current (per anode)
*   Ia pk   400mA repetitive  (2200mA transient)
*
*
*             .----- Anode
*             | .--- Cathode
*             | |
.SUBCKT 5Y3GT A K
GP  A  K  VALUE={2.69E-4*(PWR(V(A,K),1.5)+PWRS(V(A,K),1.5))/2}
.ENDS 5Y3GT
*	*	*	*	*	*	*	*	*
.SUBCKT 5Y3GTRY 1 2 3
* A1 A2 C
X1 1 2 3 VALVE1 G=.269m
.ENDS
*	*	*	*	*	*	*	*	*
.SUBCKT 6AL5RY 1 2 3
* A1 A2 C
X1 1 2 3 VALVE1 G=.18m
.ENDS
*	*	*	*	*	*	*	*	*
.SUBCKT 6D22S A K
GP  A  K  VALUE={6.769E-3*(PWR(V(A,K),1.2646)+PWRS(V(A,K),1.2646))/2}
CP  A  K  12p
.ENDS 6D22S
*	*	*	*	*	*	*	*	*
.SUBCKT 6V4_RY 1 2 3
* A1 A2 C
X1 1 2 3 VALVE1 G=.88m
.ENDS
*	*	*	*	*	*	*	*	*
.SUBCKT EZ80RY 1 2 3
* A1 A2 C
X1 1 2 3 VALVE1 G=.88m
RF1 1 3 200MEG
RF2 2 3 50MEG
RF3 A G 100MEG
.ENDS
*	*	*	*	*	*	*	*	*
.SUBCKT END_DIODES_&_START_TRIODES ;*	*	*	*	*	*	*	*	*
.ENDS
*	*	*	*	*	*	*	*	*
* GENERIC: 76
* MODEL:   NH76
* NOTES:   No heater/grid model
*	*	*	*	*	*	*	*	*
.SUBCKT NH76 A G K
* ANODE MODEL
BLIM LI  0 V=(URAMP(V(A)-V(K))** 1 )* 10 
BGG  GG  0 V=V(G)-V(K)- 0 
BRP1 RP1 0 V=URAMP(-V(GG)* 0.015 )
BRP2 RP2 0 V=V(RP1)-URAMP(V(RP1)-0.999)
BRPF RP  0 V=(1-V(RP2)** 1.8 )+URAMP(V(GG))* 0 
BGR  GR  0 V=URAMP(V(GG))-URAMP(-(V(GG)*(1+V(GG)* 0.001 )))
BEM  EM  0 V=URAMP(V(A)-V(K)+V(GR)* 12.8 )
BEP  EP  0 V=(V(EM)** 1.6 )*V(RP)* 0.000008 
BEL1 EL1 0 V=URAMP(V(EP))
BEL  EL  0 V=V(EL1)-URAMP(V(EL1)-V(LI))
BLD  LD  0 V=URAMP(V(EP)-V(LI))
BAK  A   K I=V(EL)
* GRID MODEL
BGF  GF  0 V=(URAMP(V(G)-V(K)- 0 )**1.5)* 0 
BG   G   K I=V(GF)+V(LD)
* CAPS
CAK  A   K  0.0000000000025 
CGK  G   K  0.0000000000035 
CGA  G   A  0.0000000000028 
.ENDS
*	*	*	*	*	*	*	*	*
* GENERIC: SV572-3
* MODEL:   SV5723
* NOTES:   No heater model (virtual cathode)
*	*	*	*	*	*	*	*	*
.SUBCKT NHSV5723 A G K
* ANODE MODEL
BLIM LI  0 V=(URAMP(V(A)-V(K))** 1 )* 0.0018 
BGG  GG  0 V=V(G)-V(K)- 0 
BRP1 RP1 0 V=URAMP(-V(GG)* 0.0012 )
BRP2 RP2 0 V=V(RP1)-URAMP(V(RP1)-0.999)
BRPF RP  0 V=(1-V(RP2)** 0.5 )+URAMP(V(GG))* 0 
BGR  GR  0 V=URAMP(V(GG))-URAMP(-(V(GG)*(1+V(GG)* 0.0002 )))
BEM  EM  0 V=URAMP(V(A)-V(K)+V(GR)* 3.79928 )
BEP  EP  0 V=(V(EM)** 1.4 )*V(RP)* 0.0000425 
BEL1 EL1 0 V=URAMP(V(EP))
BEL  EL  0 V=V(EL1)-URAMP(V(EL1)-V(LI))
BLD  LD  0 V=URAMP(V(EP)-V(LI))
BAK  A   K I=V(EL)
* GRID MODEL
BGF  GF  0 V=(URAMP(V(G)-V(K)- 0 )**1.5)* 0.0000349 
BG   G   K I=V(GF)+V(LD)
* CAPS
CAK  A   K  0.000000000001 
CGK  G   K  0.000000000004 
CGA  G   A  0.000000000004 
.ENDS
*	*	*	*	*	*	*	*	*
* SV572-3 
* This model was created by Eric Vannerson, using data from the Svetlana SV572-3 data sheet. 
* Questions or comments may be sent to ericvann@earthlink.net. The model is offered without 
* warranty of any kind; use at your own risk. 
* 
* Revision history: 
* April 6, 1999 -- Created 
* April 25, 1999 -- Revised to correct error in grid current (was too large by factor of 4) 
* 
*Connections: Plate 
*		| Grid 
*		| | Filament1 
*		| | | Filament2 
*		| | | | 
.SUBCKT SV572_3 1 2 3 4 
.PARAM 
+ CGF=7P CGP=8P CPF=1P 
Rf1 3 10 {0.7875} 
Rf2 4 10 {0.7875} 
Ebivarpoly bivarpoly 0 POLY(2) (2,10) (1,10) 0 0.00326165 0.000927247 -6.61478e-07 
+ -1.90336e-06 -4.66966e-07 -8.92592e-09 1.0011e-09 2.53544e-09 4.42151e-10 
Evptrans vptrans 0 POLY(1) (2,10) 381.879 -1.83142 0.0067966 
Eipt ipt 0 POLY(1) (2,10) 0.310621 0.00150527 4.9858e-06 -5.73161e-09 -2.42485e-11 4.90307e-15 1.38818e-16 
Ederiv deriv 0 POLY(1) (2,10) 0.000764037 -1.11871e-07 -3.29874e-09 1.4428e-12 6.12738e-14 
Eunsat unsat 0 VALUE = {IF(V(1,10)<0,0, 
+ IF(V(bivarpoly)<0,0, 
+ IF(V(1,10)<V(vptrans),V(bivarpoly)**1.5, 
+ (V(ipt)+V(deriv)*(V(1,10)-V(vptrans)))**1.5)))} 
Eipint ipint 0 VALUE = {IF(V(2,10)<0,V(unsat), 
+ (1.0-exp(-1.65*V(1,10)/V(2,10)))*V(unsat))} 
Gip 1 10 ipint 0 1.0 
Rp 1 10 100MEG 
Eigint igint 0 VALUE = {IF(V(2,10)<0,0,V(2,10)*(6.90943e-05*V(2,10)+2.28861e-06*V(2,10)**.5*V(1,10))/ 
+ (0.0122676+0.0273447*V(2,10)+0.0261406*V(1,10)))} 
Gig 2 10 igint 0 0.25 
Rg 2 10 100MEG 
Cgf 2 10 {Cgf} 
Cgp 1 2 {Cgp} 
Cpf 1 10 {Cpf} 
.ENDS
*	*	*	*	*	*	*	*	*
* GENERIC: SV572-10
* MODEL:   SV57210
* NOTES:   This model is not accurate for Vg >= +60V
*	*	*	*	*	*	*	*	*
.SUBCKT NHSV57210 A G K
XV1 A G K TRIODENH
+PARAMS: LIP= 1.4 LIF= 0.0008 RAF= 0.001 RAS= 1 CDO= 0 
+ RAP=-0.00117 ERP= 1.38 
+ MU0= 10 MUR= 0.0001 EMC= 0.0000272 
+ GCO=-0.2 GCF= 0.0003 
+ CGA=5.00E-12 CGK=6.40E-12 CAK=1.00E-12
.ENDS
.SUBCKT SV57210 A G K
* ANODE MODEL
BLIM LI  0 V=(URAMP(V(A)-V(K))** 1.4 )* 0.0008 
BGG  GG  0 V=V(G)-V(K)- 0 
BRP1 RP1 0 V=URAMP(-V(GG)* 0.001 )
BRP2 RP2 0 V=V(RP1)-URAMP(V(RP1)-0.999)
BRPF RP  0 V=(1-V(RP2)** 1 )+URAMP(V(GG))*-0.00117 
BGR  GR  0 V=URAMP(V(GG))-URAMP(-(V(GG)*(1+V(GG)* 0.0001 )))
BEM  EM  0 V=URAMP(V(A)-V(K)+V(GR)* 10 )
BEP  EP  0 V=(V(EM)** 1.38 )*V(RP)* 0.0000272 
BEL1 EL1 0 V=URAMP(V(EP))
BEL  EL  0 V=V(EL1)-URAMP(V(EL1)-V(LI))
BLD  LD  0 V=URAMP(V(EP)-V(LI))
BAK  A   K I=V(EL)
* GRID MODEL
BGF  GF  0 V=(URAMP(V(G)-V(K)--0.2 )**1.5)* 0.0003 
BG   G   K I=V(GF)+V(LD)
* CAPS
CAK  A   K  0.000000000001 
CGK  G   K  0.0000000000064 
CGA  G   A  0.000000000005 
.ENDS

*	*	*	*	*	*	*	*	*
* This model was created by Eric Vannerson, using data from the Svetlana SV572-10 data sheet. 
* Questions or comments may be sent to ericvann@earthlink.net. The model is offered without 
* warranty of any kind; use at your own risk. 
* 
* Revision history: 
* April 11, 1999 -- Created 
* April 25, 1999 -- Revised to correct error in grid current (was too large by factor of 4) 
* 
* 		 Connections: Plate 
* 		 | Grid 
* 		 | | Filament1 
* 		 | | | Filament2 
* 		 | | | | 
.SUBCKT SV572_10 1 2 3 4 
.PARAM 
+ CGF=7P CGP=8P CPF=1P 
Rf1 3 10 {0.7875} 
Rf2 4 10 {0.7875} 
Ebivarpoly bivarpoly 0 POLY(2) (2,10) (1,10) 0 0.00530932 0.000621768 -1.94875e-05 
+ -1.366e-06 -1.44984e-07 7.08133e-08 2.61984e-08 9.06238e-10 2.07195e-11 
Eipint ipint 0 VALUE = {IF(V(1,10)<0,0, 
+ IF(V(bivarpoly)<0,0, 
+ V(bivarpoly)**1.5*(1.0-exp(-12 
+ *(V(1,10)/(V(2,10)+50))**2))))} 
Gip 1 10 ipint 0 1.0 
Rp 1 10 100MEG 
Eigint igint 0 VALUE = {IF(V(2,10)<0,0,(0.00460839*V(2,10)+-1.31543e-06 
+ *V(2,10)**2)**1.5+(0.00212098*V(2,10)+1.53563e-05*V(2,10)**2)*exp(-0.0124132*V(1,10)))} 
Gig 2 10 igint 0 0.25 
Rg 2 10 100MEG 
Cgf 2 10 {Cgf} 
Cgp 1 2 {Cgp} 
Cpf 1 10 {Cpf} 
.ENDS
*	*	*	*	*	*	*	*	*
* SV572B 
*
* This model was created April 15, 1999 by Eric Vannerson, using data from 
* the Svetlana SV572B data sheet (with reference to the RCA 811-A data sheet 
* dated May 20, 1949). Questions or comments may be sent to ericvann@earthlink.net. 
* The model is offered without warranty of any kind; use at your own risk. 
* 
* Connections: Plate 
*		| Grid 
*		| | Filament1 
*		| | | Filament2 
*		| | | | 
.SUBCKT SV572B 1 2 3 4 
.PARAM 
+ CGF=5.9P CGP=6.0P CPF=0.8P 
Rf1 3 10 {6.3/8} 
Rf2 10 4 {6.3/8} 
Epoly poly 0 POLY(2) (2,10) (1,10) 
+ -0.00398173 
+ 0.00182285 
+ 1.21148e-05 
+ -2.81751e-05 
+ 1.93947e-06 
+ 0.0 
+ 3.73694e-06 
+ -4.77805e-08 
+ 0.0 
+ 0.0 
+ -5.6177e-08 
+ 9.9102e-10 
+ 0.0 
+ 0.0 
+ 0.0 
+ 2.58459e-10 
+ -5.58546e-12 
+ 0.0 
+ 0.0 
+ 0.0 
+ 0.0 
Eipint ipint 0 VALUE = {IF(V(1,10)<0,0,IF(V(2,10)<0,V(poly),V(poly)*(1-exp(-1.2*(V(1,10)/V(2,10))**2))))} 
Gip 1 10 VALUE = {IF(V(ipint)>0,V(ipint),0)} 
Rp 1 10 100MEG 
Gig 2 10 VALUE = {IF(V(2,10)<0,0,V(2,10)*(0.000745364+(0.00223981+-4.81686e-06*V(2,10))*exp(-V(1,10)/(0.762427*V(2,10)+92.4444))))} 
Cgf 2 10 {CGF} 
Cgp 2 1 {CGP} 
Cpf 1 10 {CPF} 
Rg 2 10 100MEG 
.ENDS 
*	*	*	*	*	*	*	*	*
*. 807, data from chf, #13
*- caps values of fantasy!
.subckt 807 a g k
bout  ap k   i = ((uramp((v(ap, k)/8.9966)+v(g, k)))**1.5)/714.69
cgk   g  k   7e-12
cga   g  a   0.2e-12
cak   a  k   6e-12
rleak g  gp  10e+3
d1    a  ap  dx
d2    k  ap  dx2
d3    pg k   dx
.model dx d(is=1.0e-12 rs=1.0)
.model dx2 d(is=1.0e-9 rs=1.0)
.ends
*	*	*	*	*	*	*	*	*
.SUBCKT 6913RY 1 2 3
* ANODE G CAT
X1 1 2 3 TRIO1 G=.524m MU=15.2 B=49.7 Vc=9.93
X2 2 3 Igrid ALPHA=.04m BETA=.1U
C1 1 2 1.6p
C2 2 3 2.5p
C3 1 3 .45p
RF1 1 3 200MEG
RF2 2 3 50MEG
.ENDS
*	*	*	*	*	*	*	*	*
*. 845, data from chf, #19 pag 45->
*- power amp, filament 10v/3.25a, plate 100w
.subckt 845 a g k
bout  ap k   i = ((uramp((v(ap, k)/5.2631)+v(g, k)))**1.5)/3586.23
cgk   g  k   6e-12
cga   g  a   13.5e-12
cak   a  k   6.5e-12
rleak g  gp  10e+3
d1    a  ap  dx
d2    k  ap  dx2
d3    pg k   dx
.model dx d(is=1.0e-12 rs=1.0)
.model dx2 d(is=1.0e-9 rs=1.0)
.ends
*	*	*	*	*	*	*	*	*
.SUBCKT 845_RY 1 2 3
* ANODE G CAT
X1 1 2 3 TRIO2 G=.315m MU=5.02 B=690 Vc=-2.1 k=10
X2 2 3 Igrid ALPHA=.8m BETA=6U
C1 1 2 14.5p
C2 2 3 6.0p
C3 1 3 4.5p
RF1 1 3 200MEG
RF2 2 3 50MEG
.ENDS
*	*	*	*	*	*	*	*	*
*. 6bx7 model based on euvm type 311
.subckt 6bx7 a g k
bout  ap k   i = ((uramp((v(ap, k)/9.88822)+v(g, k)))**1.5)/417.777
cgk   g  k   4.8e-12
cga   g  a   4.2e-12
cak   a  k   1.2e-12
rleak g  gp  10e+3
d1    a  ap  dx
d2    k  ap  dx2
d3    pg k   dx
.model dx d(is=1.0e-12 rs=1.0)
.model dx2 d(is=1.0e-9 rs=1.0)
.ends
*	*	*	*	*	*	*	*	*
.SUBCKT 6BX7GT_RY 1 2 3
* ANODE G CAT
X1 1 2 3 TRIO1 G=1.82m MU=9.42 B=48.8 Vc=-1.4
X2 2 3 Igrid ALPHA=.4m BETA=3U
C1 1 2 4.2p
C2 2 3 5p
C3 1 3 3.4p
RF1 1 3 200MEG
RF2 2 3 50MEG
.ENDS
*	*	*	*	*	*	*	*	*
.SUBCKT ABC1RY 1 2 3
* ANODE G CAT
X1 1 2 3 TRIO1 G=.639m MU=22.44 B=44.3 Vc=-1.14
X2 2 3 Igrid ALPHA=.04m BETA=.1u
C1 1 2 3p
C2 2 3 3p
C3 1 3 3p
RF1 1 3 200MEG
RF2 2 3 50MEG
.ENDS
*	*	*	*	*	*	*	*	*
.SUBCKT AD1RY 1 2 3
* ANODE G CAT
X1 1 2 3 TRIO1 G=.975m MU=3.96 B=172.7 Vc=1.35
X2 2 3 Igrid ALPHA=.3m BETA=3U
C1 1 2 17p
C2 2 3 9p
C3 1 3 5p
RF1 1 3 200MEG
RF2 2 3 50MEG
.ENDS
*	*	*	*	*	*	*	*	*
.SUBCKT DA30RY 1 2 3
* 1 2 3
X1 1 2 3 TRIO1 G=.591m MU=3.1 B=365 Vc=8.52
X2 2 3 Igrid ALPHA=.3m BETA=3U
C1 1 2 13p
C2 2 3 10p
C3 1 3 6.5p
RF1 1 3 200MEG
RF2 2 3 50MEG
.ENDS
*	*	*	*	*	*	*	*	*
.SUBCKT ED8000RY 1 2 3
* ANODE G CAT
X1 1 2 3 TRIO3 G=2.88m MU=3.3 B=21.2 C=.523 Vc=-4.33
X2 2 3 Igrid ALPHA=.4m BETA=3U
C1 1 2 2.6p
C2 2 3 4p
C3 1 3 .7p
RF1 1 3 200MEG
RF2 2 3 50MEG
.ENDS
*	*	*	*	*	*	*	*	*
.SUBCKT GL211RY 1 2 3
* ANODE G CAT
X1 1 2 3 TRIO2 G=.467m MU=11.79 B=1587 Vc=-48.4 k=7.3
X2 2 3 Igrid ALPHA=.8m BETA=6u
C1 1 2 14.5p
C2 2 3 6.0p
C3 1 3 5.5p
RF1 1 3 200MEG
RF2 2 3 50MEG
.ENDS
*	*	*	*	*	*	*	*	*
.SUBCKT VT4CRY 1 2 3
* ANODE G CAT
X1 1 2 3 GL211RY
.ENDS
*	*	*	*	*	*	*	*	*
* GL211 Triode PSpice Model                      9/96, Rev. 1.0  (fp)
* This model is valid for the following tubes:
* GL211, VT4C;
* at the following conditions:
*  Plate voltage  :  0..2200V (grid negative),
*                   100..700V (grid positive) (1)
*  Grid voltage   : +50..-180V (2)
*  Cathode current: 0..200mA
*
* (1) Plate current decrease and grid current increase at low plate
*     voltage are not modeled.
* (2) Since no data was available, grid current modeling is only 
*     approximate. Adjust Gg if required.
*
*
* Connections: Plate
*              | Grid
*              | | Cathode
*              | | |
.SUBCKT GL211  P G K
E1  2  0  VALUE={V(P,K)+12.11*V(G,K)}
R1  2  0  1.0K
Gp  P  K  VALUE={9.39E-6*(PWR(V(2),1.5)+PWRS(V(2),1.5))/2}
Gg  G  K  VALUE={358E-6*(PWR(V(G,K),1.5)+PWRS(V(G,K),1.5))/2}
Cgk G  K  6.0P
Cgp G  P  14.5P
Cpk P  K  5.5P
.ENDS GL211
.SUBCKT VT4 1 2 3
* ANODE G CAT
X1 1 2 3 GL211
.ENDS
*	*	*	*	*	*	*	*	*
.SUBCKT PX4RY 1 2 3
* 1 2 3
X1 1 2 3 TRIO1 G=.822m MU=4.7 B=174 Vc=-13.3
X2 2 3 Igrid ALPHA=.2m BETA=3U
C1 1 2 13.7p
C2 2 3 7.7p
C3 1 3 3.9p
RF1 1 3 200MEG
RF2 2 3 50MEG
.ENDS
*	*	*	*	*	*	*	*	*
.SUBCKT PX25RY 1 2 3
* 1 2 3
X1 1 2 3 TRIO1 G=1.2m MU=7.9 B=205 Vc=-19.8
X2 2 3 Igrid ALPHA=.2m BETA=3U
C1 1 2 14.8p
C2 2 3 11.4p
C3 1 3 8.3p
RF1 1 3 200MEG
RF2 2 3 50MEG
.ENDS
*	*	*	*	*	*	*	*	*
.SUBCKT R120RY 1 2 3
* 1 2 3
X1 1 2 3 TRIO1 G=1.5m MU=4.97 B=162 Vc=5.6
X2 2 3 Igrid ALPHA=.2m BETA=3U
C1 1 2 18.5p
C2 2 3 10p
C3 1 3 6p
RF1 1 3 200MEG
RF2 2 3 50MEG
.ENDS
*	*	*	*	*	*	*	*	*
.SUBCKT V45RY 1 2 3
* 1 2 3
X1 1 2 3 TRIO1 G=.34m MU=3.3 B=309 Vc=-3
X2 2 3 Igrid ALPHA=.2m BETA=3U
C1 1 2 7p
C2 2 3 4p
C3 1 3 3p
RF1 1 3 200MEG
RF2 2 3 50MEG
.ENDS
*	*	*	*	*	*	*	*	*
.SUBCKT 6BQ5TR_RY 1 2 3
* 1 2 3
X1 1 2 3 TRIO1 G=2.78m MU=17.1 B=41.3 Vc=-2.6
X2 2 3 Igrid ALPHA=.05m BETA=1U
C1 1 2 15p
C2 2 3 11p
C3 1 3 6.5p
RF1 1 3 200MEG
RF2 2 3 50MEG
.ENDS
*	*	*	*	*	*	*	*	*
.SUBCKT EL34TR_RY 1 2 3
* 1 2 3
X1 1 2 3 TRIO1 G=2.36m MU=8.7 B=42.3 Vc=1.6
X2 2 3 Igrid ALPHA=.2m BETA=2U
C1 1 2 20p
C2 2 3 15.5p
C3 1 3 7.2p
RF1 1 3 200MEG
RF2 2 3 50MEG
.ENDS
*	*	*	*	*	*	*	*	*
.SUBCKT 6CA7TR_RY 1 2 3
* 1 2 3
X1 1 2 3 EL34TR_RY
.ENDS
*	*	*	*	*	*	*	*	*
.SUBCKT 5881TR_RY 1 2 3
* 1 2 3
X1 1 2 3 TRIO1 G=.91m MU=7 B=84 Vc=2
X2 2 3 Igrid ALPHA=.2m BETA=2U
C1 1 2 15p
C2 2 3 11p
C3 1 3 9.5p
RF1 1 3 200MEG
RF2 2 3 50MEG
.ENDS
*	*	*	*	*	*	*	*	*
.SUBCKT 6550TR_RY 1 2 3
* 1 2 3
X1 1 2 3 TRIO1 G=1.57m MU=6.6 B=121 Vc=10.5
X2 2 3 Igrid ALPHA=.3m BETA=2U
C1 1 2 7.9p
C2 2 3 9.3p
C3 1 3 17p
RF1 1 3 200MEG
RF2 2 3 50MEG
.ENDS
*	*	*	*	*	*	*	*	*
.SUBCKT 6L6WGTR_RY 1 2 3
* 1 2 3
X1 1 2 3 TRIO1 G=.91m MU=7 B=84 Vc=2
X2 2 3 Igrid ALPHA=.2m BETA=2U
C1 1 2 15p
C2 2 3 11p
C3 1 3 9.5p
RF1 1 3 200MEG
RF2 2 3 50MEG
.ENDS
*	*	*	*	*	*	*	*	*
.SUBCKT KT66TR_RY 1 2 3
* 1 2 3
X1 1 2 3 TRIO1 G=.784m MU=7 B=171.6 Vc=30.42
X2 2 3 Igrid ALPHA=.2m BETA=2U
C1 1 2 12p
C2 2 3 14.5p
C3 1 3 10p
RF1 1 3 200MEG
RF2 2 3 50MEG
.ENDS
*	*	*	*	*	*	*	*	*
.SUBCKT KT88TR_RY 1 2 3
* 1 2 3
X1 1 2 3 TRIO1 G=1.57m MU=6.6 B=121 Vc=10.5
X2 2 3 Igrid ALPHA=.3m BETA=2U
C1 1 2 7.9p
C2 2 3 9.3p
C3 1 3 17p
RF1 1 3 200MEG
RF2 2 3 50MEG
.ENDS
*	*	*	*	*	*	*	*	*
.SUBCKT 6V6GTR_RY 1 2 3
* 1 2 3
X1 1 2 3 TRIO1 G=.64m MU=7.0 B=71 Vc=11
X2 2 3 Igrid ALPHA=.1m BETA=1U
C1 1 2 13p
C2 2 3 9p
C3 1 3 7.5p
RF1 1 3 200MEG
RF2 2 3 50MEG
.ENDS
*	*	*	*	*	*	*	*	*
.SUBCKT 7581TR_RY 1 2 3
* 1 2 3
X1 1 2 3 TRIO1 G=.897m MU=6.7 B=67.4 Vc=6.2
X2 2 3 Igrid ALPHA=.1m BETA=2U
C1 1 2 15p
C2 2 3 10p
C3 1 3 6.5p
RF1 1 3 200MEG
RF2 2 3 50MEG
.ENDS
*	*	*	*	*	*	*	*	*
*. 6bl7, model based on euvm type 311
.subckt 6bl7 a g k
bout  ap k   i = ((uramp((v(ap, k)/14.8353)+v(g, k)))**1.5)/397.744
cgk   g  k   4.8e-12
cga   g  a   4.2e-12
cak   a  k   1.2e-12
rleak g  gp  10e+3
d1    a  ap  dx
d2    k  ap  dx2
d3    pg k   dx
.model dx d(is=1.0e-12 rs=1.0)
.model dx2 d(is=1.0e-9 rs=1.0)
.ends
*	*	*	*	*	*	*	*	*
*
* This model is valid for the following tubes:
* 12BH7A;6BL7
* at the following conditions:
*  Plate voltage  : 0..600V
*  Grid voltage   : 0..-35V
*  Cathode current: 0..50mA
*
*
* Connections: Plate
*              | Grid
*              | | Cathode
*              | | |
.SUBCKT 12BH7A P G K
E1  2  0  VALUE={V(P,K)+16.64*V(G,K)}
R1  2  0  1.0K
Gp  P  K  VALUE={22.34E-6*(PWR(V(2),1.5)+PWRS(V(2),1.5))/2}
Cgk G  K  3.2P
Cgp G  P  2.6P
Cpk P  K  0.5P
.ENDS 12BH7A
.SUBCKT 6BL7A 1 2 3
X1 1 2 3 12BH7A
.ENDS
*	*	*	*	*	*	*	*	*
.SUBCKT 12BH7A_RY 1 2 3
* ANODE G CAT
X1 1 2 3 TRIO3 G=1.25m MU=16.6 B=19.6 C=1.38 Vc=21.27
X2 2 3 Igrid ALPHA=.04m BETA=.1U
C1 1 2 2.6p
C2 2 3 3.2p
C3 1 3 .5p
RF1 1 3 200MEG
RF2 2 3 50MEG
.ENDS
*	*	*	*	*	*	*	*	*
* This model is valid for the following tubes:
* 6SL7GT, ECC35, 5691;
* at the following conditions:
*  Plate voltage  : 0..450V
*  Grid voltage   : 0..-6V
*  Cathode current: 0..8mA
*
*
* Connections: Plate
*              | Grid
*              | | Cathode
*              | | |
.SUBCKT 6SL7GT P G K
E1  2  0  VALUE={V(P,K)+65.5*V(G,K)}
R1  2  0  1.0K
Gp  P  K  VALUE={1.54E-6*(PWR(V(2),1.5)+PWRS(V(2),1.5))/2}
Cgk G  K  3.2P
Cgp G  P  2.8P
Cpk P  K  3.5P
.ENDS 6SL7GT
.SUBCKT ECC35 1 2 3
X1 1 2 3 6SL7GT
.ENDS
.SUBCKT 5691 1 2 3
X1 1 2 3 6SL7GT
.ENDS
*	*	*	*	*	*	*	*	*
.SUBCKT 6SL7GT_RY 1 2 3
* ANODE G CAT
X1 1 2 3 TRIO1 G=.62m MU=62.7 B=7500 Vc=21.3
X2 2 3 Igrid ALPHA=.04m BETA=.1U
C1 1 2 3.8p
C2 2 3 2.8p
C3 1 3 3.2p
RF1 1 3 200MEG
RF2 2 3 50MEG
.ENDS
.SUBCKT 5691Ry 1 2 3
X1 1 2 3 6SL7GT_RY
.ENDS
*	*	*	*	*	*	*	*	*
*. 6sl7, model based on rca data sheets
.subckt 6sl7 a g k
bout  ap k   i = ((uramp((v(ap, k)/67.0734)+v(g, k)))**1.5)/945.925
cgk   g  k   3.4e-12
cga   g  a   2.8e-12
cak   a  k   3.8e-12
rleak g  gp  10e+3
d1    a  ap  dx
d2    k  ap  dx2
d3    pg k   dx
.model dx d(is=1.0e-12 rs=1.0)
.model dx2 d(is=1.0e-9 rs=1.0)
.ends
*	*	*	*	*	*	*	*	*
* GENERIC: 6SN7GTB&6cg7&6FQ7
* MODEL:   6SN7GTB
* NOTES:   Has heater model (one half of heater)
*	*	*	*	*	*	*	*	*
*. 6sn7, my model, based on rca data sheets
.subckt 6sn7rca a g k
bout  ap k   i = ((uramp((v(ap, k)/20.7392)+v(g, k)))**1.5)/972.563
cgk   g  k   2.2e-12
cga   g  a   4e-12
cak   a  k   0.7e-12
rleak g  gp  10e+3
d1    a  ap  dx
d2    k  ap  dx2
d3    pg k   dx
.model dx d(is=1.0e-12 rs=1.0)
.model dx2 d(is=1.0e-9 rs=1.0)
.ends
*	*	*	*	*	*	*	*	*
.SUBCKT 6SN7GTBDM A G K H1 H2
XV1 A G K H1 H2 TRIODE
+PARAMS: RCO= 3.2 RHO= 21 HTV= 6.3 HWU= 10.5 
+ LIP= 1 LIF= 0.0037 RAF= 0.02 RAS= 2 CDO= 0 
+ RAP= 0.002 ERP= 1.4 
+ MU0= 19.2642 MUR= 0.006167 EMC= 0.0000189 
+ GCO= 0 GCF= 0.000213 
+ CGA=3.90E-12 CGK=2.40E-12 CAK=7.00E-13
.ENDS
*	*	*	*	*	*	*	*	*
* GENERIC: 6SN7GTB
* MODEL:   NH6SN7GTB
* NOTES:   No heater model
*	*	*	*	*	*	*	*	*
.SUBCKT NH6SN7GTB A G K
* ANODE MODEL
BLIM LI  0 V=(URAMP(V(A)-V(K))** 1 )* 0.0037 
BGG  GG  0 V=V(G)-V(K)- 0 
BRP1 RP1 0 V=URAMP(-V(GG)* 0.02 )
BRP2 RP2 0 V=V(RP1)-URAMP(V(RP1)-0.999)
BRPF RP  0 V=(1-V(RP2)** 2 )+URAMP(V(GG))* 0.002 
BGR  GR  0 V=URAMP(V(GG))-URAMP(-(V(GG)*(1+V(GG)* 0.006167 )))
BEM  EM  0 V=URAMP(V(A)-V(K)+V(GR)* 19.2642 )
BEP  EP  0 V=(V(EM)** 1.4 )*V(RP)* 0.0000189 
BEL1 EL1 0 V=URAMP(V(EP))
BEL  EL  0 V=V(EL1)-URAMP(V(EL1)-V(LI))
BLD  LD  0 V=URAMP(V(EP)-V(LI))
BAK  A   K I=V(EL)
* GRID MODEL
BGF  GF  0 V=(URAMP(V(G)-V(K)- 0 )**1.5)* 0.000213 
BG   G   K I=V(GF)+V(LD)
* CAPS
CAK  A   K  0.0000000000007 
CGK  G   K  0.0000000000024 
CGA  G   A  0.0000000000039 
.ENDS
*	*	*	*	*	*	*	*	*
.SUBCKT 6SN7GTB_RY 1 2 3
* ANODE G CAT
X1 1 2 3 TRIO1 G=.835m MU=19 B=44.7 Vc=9.3
X2 2 3 Igrid ALPHA=.05m BETA=.1U
C1 1 2 2.8p
C2 2 3 3.4p
C3 1 3 3.2p
RF1 1 3 200MEG
RF2 2 3 50MEG
.ENDS
*	*	*	*	*	*	*	*	*
.SUBCKT 6CG7RY 1 2 3
* 1 2 3
X1 1 2 3 TRIO1 G=.687m MU=16.8 B=34 Vc=7
X2 2 3 Igrid ALPHA=1m BETA=5U
C1 1 2 3.6p
C2 2 3 2.4p
C3 1 3 .34p
RF1 1 3 200MEG
RF2 2 3 50MEG
.ENDS
*	*	*	*	*	*	*	*	*
* This model is valid for the following tubes:
* 6SN7GTB, ECC32, 6FQ7/6CG7, 5692;
* at the following conditions:
*  Plate voltage  : 0..450V
*  Grid voltage   : 0..-18V
*  Cathode current: 0..30mA
*
*
*  Connections: Plate
*               | Grid
*               | | Cathode
*               | | |
.SUBCKT 6SN7GTB P G K
E1  2  0  VALUE={V(P,K)+20.43*V(G,K)}
R1  2  0  1.0K
Gp  P  K  VALUE={10.89E-6*(PWR(V(2),1.5)+PWRS(V(2),1.5))/2}
Cgk G  K  2.4P
Cgp G  P  4.0P
Cpk P  K  0.7P
.ENDS
*	*	*	*	*	*	*	*	*
 Connections: Plate
*              | Grid
*              | | Cathode
*              | | |
.SUBCKT 6SN7   1 2 3
X1 1 2 3 Triodo MU=22.004 EX=1.2128 KG1=1213.7 KP=203.06 KVB=355.09
+	RGI=2000 CCG=2.4P CGP=3.9P CCP=0.7P
.Ends
.SUBCKT 6N8S  1 2 3 ; P G C (Triode) 24-Oct-2001
X1 1 2 3 Triodo MU= 22.87  EX= 1.516  KG1=2209.8  KP=167.87 
+	KVB=155.4  VCT=0.70  RGI=1000 CCG=3P  CGP=1.2P CCP=4P
.ENDS
.Subckt 6SN7GT 1 2 3
X1 1 2 3 6N8S
.Ends
.Subckt ECC32 1 2 3
X1 1 2 3 6N8S
.Ends
.SUBCKT 5842   1 2 3
X1 1 2 3 Triodo MU=42.4 EX=2.21 KG1=393 KP=629 KVB=446
+	RGI=2000 CCG=9.0P CGP=1.8P CCP=0.48P
.ENDS
.SUBCKT 6S33S 1 2 3  ; P G C; (Triode) 22-Oct-2001
X1 1 2 3 Triodo MU=3.1 EX=1.4 KG1=163 KP=15 KVB=300 RGI=1000
+	CCG=2.3P  CGP=2.2P CCP=1.0P
.ENDS
*	*	*	*	*	*	*	*	*
* euvm type 17
*
*. 6c19c/sop, based on "the tube directory" sophia measured.
*- lookin for a low plate impedance bulb ??? :)
.subckt 6c19c a g k
bout  ap k   i = ((uramp((v(ap, k)/2.62419)+v(g, k)))**1.5)/647.903
cgk   g  k   5e-12
cga   g  a   5e-12
cak   a  k   4e-12
rleak g  gp  10e+3
d1    a  ap  dx
d2    k  ap  dx2
d3    pg k   dx
.model dx d(is=1.0e-12 rs=1.0)
.model dx2 d(is=1.0e-9 rs=1.0)
.ends
*	*	*	*	*	*	*	*	*
.SUBCKT 6C33S 1 2 3
X1 1 2 3 6S33S
.ENDS
*	*	*	*	*	*	*	*	*
*. 6c33c-b, data from chf, #12 pag 30
.subckt 6c33c-b a g k
bout  ap k   i = ((uramp((v(ap, k)/2.73644)+v(g, k)))**1.5)/85.5547
cgk   g  k   36e-12
cga   g  a   37e-12
cak   a  k   45e-12
rleak g  gp  10e+3
d1    a  ap  dx
d2    k  ap  dx2
d3    pg k   dx
.model dx d(is=1.0e-12 rs=1.0)
.model dx2 d(is=1.0e-9 rs=1.0)
.ends
*	*	*	*	*	*	*	*	*
.SUBCKT 6C33C-B_RY 1 2 3
* 1 2 3
X1 1 2 3 TRIO3 G=5.126m MU=2 B=18.79 C=.944 Vc=.22
X2 2 3 Igrid ALPHA=1m BETA=5U
C1 1 2 10p
C2 2 3 20p
C3 1 3 7p
RF1 1 3 200MEG
RF2 2 3 50MEG
.ENDS
*	*	*	*	*	*	*	*	*
.SUBCKT 6N7S 1 2 3  ; P G C; (Triode) 20-Oct-2001  
X1 1 2 3 Triodo MU=35.29 EX=1.48 KG1=3201.6 KP=590.54
+	KVB=87.5 VCT=0.75 RGI=1000 CCG=4.3P  CGP=2.4P CCP=5.4P
.ENDS
.Subckt P50-2T 1 2 3
X1 1 2 3 GU50_T
.Ends
.SUBCKT 6N6P  1 2 3 ; P G C (Triode) 25-Oct-2001
X1 1 2 3 Triodo MU= 17.22  EX= 1.715  KG1=1155.0  KP=87.74 
+	KVB=300.0  VCT=0.00 RGI=1000 CCG=4P  CGP=3P CCP=1.9P
.ENDS
.SUBCKT 6N23P  1 2 3 ; P G C (Triode) 26-Oct-2001
X1 1 2 3 Triodo MU=33.04  EX=1.220  KG1=212.4  KP=183.83 
+	KVB=300.0  VCT=0.00 RGI=2000 CCG=3.6P  CGP=1.5P CCP=2P
.ENDS
*	*	*	*	*	*	*	*	*
*. e182cc, model based on euvm type 317
.subckt e182cc a g k
bout  ap k   i = ((uramp((v(ap, k)/20.1785)+v(g, k)))**1.5)/137.904
cgk   g  k   6.7e-12
cga   g  a   4.6e-12
cak   a  k   1.45e-12
rleak g  gp  10e+3
d1    a  ap  dx
d2    k  ap  dx2
d3    pg k   dx
.model dx d(is=1.0e-12 rs=1.0)
.model dx2 d(is=1.0e-9 rs=1.0)
.ends
*	*	*	*	*	*	*	*	*
*. e288cc, model based on euvm type 317
.subckt e288cc a g k
bout  ap k   i = ((uramp((v(ap, k)/23.1522)+v(g, k)))**1.5)/105.79
cgk   g  k   4.7e-12
cga   g  a   1.8e-12
cak   a  k   1.9e-12
rleak g  gp  10e+3
d1    a  ap  dx
d2    k  ap  dx2
d3    pg k   dx
.model dx d(is=1.0e-12 rs=1.0)
.model dx2 d(is=1.0e-9 rs=1.0)
.ends
*	*	*	*	*	*	*	*	*
.Subckt ECC88 1 2 3
X1 1 2 3 6N23P
.Ends
.Subckt 6DJ8T 1 2 3
X1 1 2 3 6N23P
.Ends
.SUBCKT 6DJ8Tn 1 2 3  ; P G C; NEW MODEL
X1 1 2 3 Triodo MU=28 EX=1.3 KG1=330 KP=320 KVB=300 RGI=2000
+	CCG=2.3P  CGP=2.1P CCP=.7P  ; ADD .7PF TO ADJACENT PINS; .5 TO OTHERS. 
.ENDS
*	*	*	*	*	*	*	*	*
* GENERIC: 6DJ8 / ECC88
* MODEL:   NH6DJ8
* NOTES:   No heater or grid current model
*	*	*	*	*	*	*	*	*
.SUBCKT NH6DJ8 A G K
* ANODE MODEL
BLIM LI  0 V=(URAMP(V(A)-V(K))** 1.5 )* 10 
BGG  GG  0 V=V(G)-V(K)- 0 
BRP1 RP1 0 V=URAMP(-V(GG)* 0.09 )
BRP2 RP2 0 V=V(RP1)-URAMP(V(RP1)-0.999)
BRPF RP  0 V=(1-V(RP2)** 0.2 )+URAMP(V(GG))* 0 
BGR  GR  0 V=URAMP(V(GG))-URAMP(-(V(GG)*(1+V(GG)* 0.02 )))
BEM  EM  0 V=URAMP(V(A)-V(K)+V(GR)* 33 )
BEP  EP  0 V=(V(EM)** 1.35 )*V(RP)* 0.0000795 
BEL1 EL1 0 V=URAMP(V(EP))
BEL  EL  0 V=V(EL1)-URAMP(V(EL1)-V(LI))
BLD  LD  0 V=URAMP(V(EP)-V(LI))
BAK  A   K I=V(EL)
* GRID MODEL
BGF  GF  0 V=(URAMP(V(G)-V(K)--0.2 )**1.5)* 0 
BG   G   K I=V(GF)+V(LD)
* CAPS
CAK  A   K  0.0000000000018 
CGK  G   K  0.0000000000033 
CGA  G   A  0.0000000000014 
.ENDS

*	*	*	*	*	*	*	*	*
.SUBCKT 6DJ8RY 1 2 3
* ANODE G CAT
X1 1 2 3 TRIO2 G=4.6m MU=29.3 B=34.9 Vc=11.8 k=6.3
X2 2 3 Igrid ALPHA=.04m BETA=.1U
C1 1 2 1.4p
C2 2 3 3.1p
C3 1 3 .18p
RF1 1 3 200MEG
RF2 2 3 50MEG
.ENDS
.SUBCKT 6922RY 1 2 3
X1 1 2 3 6DJ8RY
.ENDS
.SUBCKT ECC88RY 1 2 3
X1 1 2 3 6DJ8RY
.ENDS
*	*	*	*	*	*	*	*	*
*
* This model is valid for the following tubes:
* 6DJ8/ECC88, 6922/E88CC, 7308;
* at the following conditions:
*  Plate voltage  : 0..300V
*  Grid voltage   : 0..-8V
*  Cathode current: 0..100mA
*
*
* Connections: Plate
*              | Grid
*              | | Cathode
*              | | |
.SUBCKT 6DJ8   P G K
E1  2  0  VALUE={V(P,K)+30.95*V(G,K)}
R1  2  0  1.0K
Gp  P  K  VALUE={34.56E-6*(PWR(V(2),1.5)+PWRS(V(2),1.5))/2}
Cgk G  K  3.1P
Cgp G  P  1.4P
Cpk P  K  0.18P
.ENDS 6DJ8
.SUBCKT ECC88 1 2 3
X1 1 2 3 6DJ8
.ENDS
.SUBCKT 6P3S_T  1 2 3 ; P G C (Triode Mode)  28-Oct-2001
X1 1 2 3 Triodo MU=10.76  EX=1.314  KG1=712.7  KP=24.67
+	KVB=300.0  VCT=0.00  RGI=1k CCG=11P  CGP=1P CCP=8.2P
.ENDS
.Subckt 6L6G-T 1 2 3
X1 1 2 3 6P3S_T
.Ends
.SUBCKT 6N5P  1 2 3 ; P G C (Triode)
X1 1 2 3 Triodo MU=23.76  EX=1.244  KG1=300.1  KP=164.49 
+	KVB=300.0  VCT=0.00  RGI=2k CCG=3P  CGP=2.25P CCP=1.5P
.ENDS
.SUBCKT 6S41S  1 2 3 ; P G C (Triode) 30-Oct-2001
X1 1 2 3 Triodo MU=2.58  EX=1.450  KG1=689.1  KP=9.98 
+	KVB=300.0  VCT=0.00  RGI=1k CCG=11P  CGP=15P CCP=5P
.ENDS
.SUBCKT 6N1P  1 2 3 ; P G C (Triode)  30-Oct-2001
X1 1 2 3 Triodo MU=38.29  EX=1.761  KG1=1430.7  KP=245.76 
+	KVB=300.0  VCT=0.00 RGI=2k CCG=3P  CGP=2.25P CCP=1.5P
.ENDS
*	*	*	*	*	*	*	*	*
* GENERIC: 6N1P
* MODEL:   NH6N1P
* NOTES:   No heater/grid model
*	*	*	*	*	*	*	*	*
.SUBCKT NH6N1P A G K
* ANODE MODEL
BLIM LI  0 V=(URAMP(V(A)-V(K))** 1.5 )* 10 
BGG  GG  0 V=V(G)-V(K)- 0 
BRP1 RP1 0 V=URAMP(-V(GG)* 0.01 )
BRP2 RP2 0 V=V(RP1)-URAMP(V(RP1)-0.999)
BRPF RP  0 V=(1-V(RP2)** 1 )+URAMP(V(GG))* 0 
BGR  GR  0 V=URAMP(V(GG))-URAMP(-(V(GG)*(1+V(GG)* 0.01 )))
BEM  EM  0 V=URAMP(V(A)-V(K)+V(GR)* 37.5 )
BEP  EP  0 V=(V(EM)** 1.6 )*V(RP)* 0.000005 
BEL1 EL1 0 V=URAMP(V(EP))
BEL  EL  0 V=V(EL1)-URAMP(V(EL1)-V(LI))
BLD  LD  0 V=URAMP(V(EP)-V(LI))
BAK  A   K I=V(EL)
* GRID MODEL
BGF  GF  0 V=(URAMP(V(G)-V(K)- 0 )**1.5)* 0 
BG   G   K I=V(GF)+V(LD)
* CAPS
CAK  A   K  0.0000000000015 
CGK  G   K  0.0000000000032 
CGA  G   A  0.0000000000016 
.ENDS
*	*	*	*	*	*	*	*	*
.SUBCKT GU50_T  1 2 3 ; P G C (Triode Mode) 30-Oct-2001
X1 1 2 3 Triodo MU=5.41  EX=1.366  KG1=1350.7  KP=34.52 
+	KVB=300.0  VCT=0.00 RGI=2k CCG=14P  CGP=0.1P CCP=9.2P
.ENDS
.Subckt LS50T 1 2 3
X1 1 2 3 GU50_T
.Ends
.Subckt P50-2T 1 2 3
X1 1 2 3 GU50_T
.Ends
.SUBCKT 6P45S_T  1 2 3 ; P G C (Triode Mode)02-Nov-2001 
X1 1 2 3 Triodo MU=3.97  EX=1.512  KG1=517.5  KP=43.74 