.subckt VCC 1 Vcc=5V
V 1 0 {Vcc}
.ends VCC