.subckt VT6K1 1  2  3   4   5   6
*            S1 G1  D2 S2  G2  D6
m1 6 2 1 VT6K1_AB
D1 2 1 dz
m2 3 5 4 VT6K1_AB
D2 4 5 dz
.model VT6K1_AB VDMOS(Rg=20 vto={0.65-1.6m*(TEMP-25)} Rds=100Meg kp=0.44 theta=0.225 Rd=0.1 Rs=200m Rb=40m
+ Ksubthres=.1 Mtriode=1.1 Lambda=40m Cgdmin=1.5p Cgdmax=5p Cgs=7p tt=100n ibv=250u nbv=3 a=0.7 
+ is=1.4e-13 cjo=9p bv={20+25m*(TEMP-25)} m=0.36 vj=0.8 Theta=500m
.model dz d vfwd=8 Ron=1 Vrev=8
.ends VT6K1