**************************************************
* Manufacturer:       Wurth Elektronik 
* Kinds:     SMD High Voltage Couple Inductor
* Matchcode:          WE-CPIB_HV
* Library Type:       Ltspice
* Version:        rev18a
* Created/modified by:    Fredo       
* Date and Time   :       10/15/2018
* Team:           eiSos EDA Service  
* Contact:        libraries@we-online.com
**************************************************
.subckt  4828_7448845047_4.7u  1  2  3  4  PARAMS:
+  Cww=10p
+  Rp1=4302
+  Cp1=7.222p
+  Lp1=5.097u
+  Rp2=4283
+  Cp2=6.698p
+  Lp2=5.498u
+  RDC1=0.114
+  RDC2=0.114
+  K=0.983913159980584
C_C1  2  1    {Cww/2}
R_R50  2  1  5000g
C_C2  3  4    {Cww/2}
C_C5  3  2    {Cp1}
R_R1  3  N05454    {RDC1}
R_R2  3  2    {Rp1}
L_L1  N05454  2    {Lp1}
L_L2  N05750  1    {Lp2}
C_C6  4  1    {Cp2}
R_R3  4  1    {Rp2}
R_R4  4  N05750    {RDC2}
Kn_K1  L_L1  L_L2      {K}
.ends
******
.subckt  4828_7448845100_10u  1  2  3  4  PARAMS:
+  Cww=12p
+  Rp1=8699
+  Cp1=3.502p
+  Lp1=10.512u
+  Rp2=8355
+  Cp2=3.624p
+  Lp2=10.156u
+  RDC1=0.217
+  RDC2=0.217
+  K=0.98488578017961
C_C1  2  1    {Cww/2}
R_R50  2  1  5000g
C_C2  3  4    {Cww/2}
C_C5  3  2    {Cp1}
R_R1  3  N05454    {RDC1}
R_R2  3  2    {Rp1}
L_L1  N05454  2    {Lp1}
L_L2  N05750  1    {Lp2}
C_C6  4  1    {Cp2}
R_R3  4  1    {Rp2}
R_R4  4  N05750    {RDC2}
Kn_K1  L_L1  L_L2      {K}
.ends
******
.subckt  4828_7448845220_22u  1  2  3  4  PARAMS:
+  Cww=14p
+  Rp1=16486
+  Cp1=3.59p
+  Lp1=23.508u
+  Rp2=16408
+  Cp2=3.638p
+  Lp2=23.196u
+  RDC1=0.462
+  RDC2=0.462
+  K=0.991280164048673
C_C1  2  1    {Cww/2}
R_R50  2  1  5000g
C_C2  3  4    {Cww/2}
C_C5  3  2    {Cp1}
R_R1  3  N05454    {RDC1}
R_R2  3  2    {Rp1}
L_L1  N05454  2    {Lp1}
L_L2  N05750  1    {Lp2}
C_C6  4  1    {Cp2}
R_R3  4  1    {Rp2}
R_R4  4  N05750    {RDC2}
Kn_K1  L_L1  L_L2      {K}
.ends
******
.subckt  4828_7448845330_33u  1  2  3  4  PARAMS:
+  Cww=20p
+  Rp1=20273
+  Cp1=4.32p
+  Lp1=35.521u
+  Rp2=19077
+  Cp2=4.46p
+  Lp2=34.693u
+  RDC1=0.66
+  RDC2=0.66
+  K=0.993066874979635
C_C1  2  1    {Cww/2}
R_R50  2  1  5000g
C_C2  3  4    {Cww/2}
C_C5  3  2    {Cp1}
R_R1  3  N05454    {RDC1}
R_R2  3  2    {Rp1}
L_L1  N05454  2    {Lp1}
L_L2  N05750  1    {Lp2}
C_C6  4  1    {Cp2}
R_R3  4  1    {Rp2}
R_R4  4  N05750    {RDC2}
Kn_K1  L_L1  L_L2      {K}
.ends
******
.subckt  4828_7448845470_47u  1  2  3  4  PARAMS:
+  Cww=22p
+  Rp1=24127
+  Cp1=4.38p
+  Lp1=52.352u
+  Rp2=24921
+  Cp2=4.452p
+  Lp2=51.548u
+  RDC1=0.825
+  RDC2=0.825
+  K=0.992525255587345
C_C1  2  1    {Cww/2}
R_R50  2  1  5000g
C_C2  3  4    {Cww/2}
C_C5  3  2    {Cp1}
R_R1  3  N05454    {RDC1}
R_R2  3  2    {Rp1}
L_L1  N05454  2    {Lp1}
L_L2  N05750  1    {Lp2}
C_C6  4  1    {Cp2}
R_R3  4  1    {Rp2}
R_R4  4  N05750    {RDC2}
Kn_K1  L_L1  L_L2      {K}
.ends
******
