*********************************************************
* Manufacturer: 		Wurth Elektronik
* Kinds:			SMD High Current Inductor
* Matchcode: 		WE-CHSA
* Library Type:		LTspice
* Version: 		rev18a
* Created/modified by:	Fredo Huang
* Date and Time   :		2018-01-03
* Team: 			eiSos EDA Service
* Contact: 		libraries@we-online.com
*********************************************************
.subckt 1212_7843320039_0.39u 1 2
Rp 1 2 221.73
Cp 1 2 1.65p
Rs 1 N3 0.00165
L1 N3 2 0.39u
.ends 1212_7843320039_0.39u
*******
.subckt 1212_7843320068_0.68u 1 2
Rp 1 2 381.34
Cp 1 2 2.23p
Rs 1 N3 0.00205
L1 N3 2 0.68u
.ends 1212_7843320068_0.68u
*******
.subckt 1212_7843320100_1u 1 2
Rp 1 2 599.59
Cp 1 2 2.39p
Rs 1 N3 0.0024
L1 N3 2 1u
.ends 1212_7843320100_1u
*******
.subckt 1212_7843320150_1.5u 1 2
Rp 1 2 853.41
Cp 1 2 2.91p
Rs 1 N3 0.0033
L1 N3 2 1.5u
.ends 1212_7843320150_1.5u
*******
.subckt 1212_7843320270_2.7u 1 2
Rp 1 2 1562.15
Cp 1 2 2.94p
Rs 1 N3 0.0047
L1 N3 2 2.7u
.ends 1212_7843320270_2.7u
*******
.subckt 1212_7843320330_3.3u 1 2
Rp 1 2 2107.15
Cp 1 2 2.67p
Rs 1 N3 0.0064
L1 N3 2 3.3u
.ends 1212_7843320330_3.3u
*******
.subckt 1212_7843320470_4.7u 1 2
Rp 1 2 3076.71
Cp 1 2 3.09p
Rs 1 N3 0.0082
L1 N3 2 4.7u
.ends 1212_7843320470_4.7u
*******
.subckt 1212_7843320680_6.8u 1 2
Rp 1 2 4402.86
Cp 1 2 2.93p
Rs 1 N3 0.0119
L1 N3 2 6.8u
.ends 1212_7843320680_6.8u
*******
.subckt 1212_7843320820_8.2u 1 2
Rp 1 2 5213.95
Cp 1 2 2.9p
Rs 1 N3 0.015
L1 N3 2 8.2u
.ends 1212_7843320820_8.2u
*******
.subckt 1212_7843321200_12u 1 2
Rp 1 2 7227.97
Cp 1 2 2.83p
Rs 1 N3 0.0215
L1 N3 2 12u
.ends 1212_7843321200_12u
*******
.subckt 1011_7843330033_0.33u 1 2
Rp 1 2 224.28
Cp 1 2 1.44p
Rs 1 N3 0.0017
L1 N3 2 0.33u
.ends 1011_7843330033_0.33u
*******
.subckt 1011_7843330056_0.56u 1 2
Rp 1 2 396.33
Cp 1 2 1.93p
Rs 1 N3 0.00205
L1 N3 2 0.56u
.ends 1011_7843330056_0.56u
*******
.subckt 1011_7843330100_1u 1 2
Rp 1 2 628.69
Cp 1 2 2.38p
Rs 1 N3 0.0029
L1 N3 2 1u
.ends 1011_7843330100_1u
*******
.subckt 1011_7843330180_1.8u 1 2
Rp 1 2 1287.42
Cp 1 2 2.36p
Rs 1 N3 0.0047
L1 N3 2 1.8u
.ends 1011_7843330180_1.8u
*******
.subckt 1011_7843330330_3.3u 1 2
Rp 1 2 2142.73
Cp 1 2 2.77p
Rs 1 N3 0.0065
L1 N3 2 3.3u
.ends 1011_7843330330_3.3u
*******
.subckt 1011_7843330390_3.9u 1 2
Rp 1 2 2709.94
Cp 1 2 2.48p
Rs 1 N3 0.0087
L1 N3 2 3.9u
.ends 1011_7843330390_3.9u
*******
.subckt 1011_7843330560_5.6u 1 2
Rp 1 2 4042.6
Cp 1 2 2.73p
Rs 1 N3 0.013
L1 N3 2 5.6u
.ends 1011_7843330560_5.6u
*******
.subckt 1011_7843330820_8.2u 1 2
Rp 1 2 5878.17
Cp 1 2 2.49p
Rs 1 N3 0.0191
L1 N3 2 8.2u
.ends 1011_7843330820_8.2u
*******
.subckt 8090_7843340033_0.33u 1 2
Rp 1 2 352.87
Cp 1 2 1.32p
Rs 1 N3 0.0021
L1 N3 2 0.33u
.ends 8090_7843340033_0.33u
*******
.subckt 8090_7843340047_0.47u 1 2
Rp 1 2 533.42
Cp 1 2 1.64p
Rs 1 N3 0.0028
L1 N3 2 0.47u
.ends 8090_7843340047_0.47u
*******
.subckt 8090_7843340068_0.68u 1 2
Rp 1 2 794.21
Cp 1 2 1.6p
Rs 1 N3 0.0041
L1 N3 2 0.68u
.ends 8090_7843340068_0.68u
*******
.subckt 8090_7843340100_1u 1 2
Rp 1 2 1108.86
Cp 1 2 1.62p
Rs 1 N3 0.0059
L1 N3 2 1u
.ends 8090_7843340100_1u
*******
.subckt 8090_7843340220_2.2u 1 2
Rp 1 2 2386.58
Cp 1 2 1.85p
Rs 1 N3 0.012
L1 N3 2 2.2u
.ends 8090_7843340220_2.2u
*******
.subckt 8090_7843340330_3.3u 1 2
Rp 1 2 3576.33
Cp 1 2 1.64p
Rs 1 N3 0.0184
L1 N3 2 3.3u
.ends 8090_7843340330_3.3u
*******
.subckt 8090_7843340470_4.7u 1 2
Rp 1 2 5737.69
Cp 1 2 1.84p
Rs 1 N3 0.0289
L1 N3 2 4.7u
.ends 8090_7843340470_4.7u
*******
