**********************************************************
* Manufacturer: 		Wurth Elektronik
* Kinds:			SMF High Current Flat Wire Inductor
* Matchcode: 		WE-HCM
* Library Type:		LTspice
* Version: 		rev18a
* Created/modified by:	Fredo Huang
* Date and Time   :		2018-01-03
* Team: 			eiSos EDA Service
* Contact: 		libraries@we-online.com
***********************************************************
.subckt 1050_744303012_0.12u 1 2
Rp 1 2 71.54
Cp 1 2 11p
Rs 1 N3 0.000325
L1 N3 2 0.12u
.ends 1050_744303012_0.12u
*******
.subckt 1050_744303015_0.155u 1 2
Rp 1 2 69.77
Cp 1 2 20.21p
Rs 1 N3 0.000325
L1 N3 2 0.155u
.ends 1050_744303015_0.155u
*******
.subckt 1050_744303022_0.22u 1 2
Rp 1 2 84.88
Cp 1 2 18.52p
Rs 1 N3 0.000325
L1 N3 2 0.22u
.ends 1050_744303022_0.22u
*******
.subckt 1052_744306020_0.2u 1 2
Rp 1 2 53.9
Cp 1 2 0.927p
Rs 1 N3 0.0003
L1 N3 2 0.2u
.ends 1052_744306020_0.2u
*******
.subckt 1052_744306025_0.25u 1 2
Rp 1 2 55.47
Cp 1 2 0.526p
Rs 1 N3 0.0003
L1 N3 2 0.25u
.ends 1052_744306025_0.25u
*******
.subckt 1052_744306030_0.3u 1 2
Rp 1 2 53.22
Cp 1 2 29.61p
Rs 1 N3 0.0003
L1 N3 2 0.3u
.ends 1052_744306030_0.3u
*******
.subckt 1070_744308015_0.15u 1 2
Rp 1 2 57.41
Cp 1 2 1.9p
Rs 1 N3 0.00037
L1 N3 2 0.15u
.ends 1070_744308015_0.15u
*******
.subckt 1070_744308020_0.2u 1 2
Rp 1 2 61.66
Cp 1 2 1.327p
Rs 1 N3 0.00037
L1 N3 2 0.2u
.ends 1070_744308020_0.2u
*******
.subckt 1070_744308025_0.25u 1 2
Rp 1 2 64.55
Cp 1 2 1.694p
Rs 1 N3 0.00037
L1 N3 2 0.25u
.ends 1070_744308025_0.25u
*******
.subckt 1070_744308033_0.33u 1 2
Rp 1 2 69.73
Cp 1 2 0.991p
Rs 1 N3 0.00037
L1 N3 2 0.33u
.ends 1070_744308033_0.33u
*******
.subckt 1070_744308040_0.4u 1 2
Rp 1 2 50.667
Cp 1 2 21.667p
Rs 1 N3 0.00037
L1 N3 2 0.4u
.ends 1070_744308040_0.4u
*******
.subckt 1078_7443081010_0.1u 1 2
Rp 1 2 50.577
Cp 1 2 0.001p
Rs 1 N3 0.00029
L1 N3 2 0.1u
.ends 1078_7443081010_0.1u
*******
.subckt 1078_7443081012_0.12u 1 2
Rp 1 2 42.975
Cp 1 2 0.00021p
Rs 1 N3 0.00029
L1 N3 2 0.12u
.ends 1078_7443081012_0.12u
*******
.subckt 1078_7443081015_0.15u 1 2
Rp 1 2 43.957
Cp 1 2 0.00024p
Rs 1 N3 0.00029
L1 N3 2 0.15u
.ends 1078_7443081015_0.15u
*******
.subckt 1078_7443081018_0.18u 1 2
Rp 1 2 46.265
Cp 1 2 0.003p
Rs 1 N3 0.00029
L1 N3 2 0.18u
.ends 1078_7443081018_0.18u
*******
.subckt 1078_7443081022_0.22u 1 2
Rp 1 2 45.021
Cp 1 2 0.002p
Rs 1 N3 0.00029
L1 N3 2 0.22u
.ends 1078_7443081022_0.22u
*******
.subckt 1078_7443081030_0.3u 1 2
Rp 1 2 45.84
Cp 1 2 0.003p
Rs 1 N3 0.00029
L1 N3 2 0.3u
.ends 1078_7443081030_0.3u
*******
.subckt 1078_7443081040_0.4u 1 2
Rp 1 2 41.725
Cp 1 2 0.007p
Rs 1 N3 0.00029
L1 N3 2 0.4u
.ends 1078_7443081040_0.4u
*******
.subckt 1190_744301025_0.25u 1 2
Rp 1 2 45.7
Cp 1 2 1.13p
Rs 1 N3 0.00032
L1 N3 2 0.25u
.ends 1190_744301025_0.25u
*******
.subckt 1190_744301033_0.33u 1 2
Rp 1 2 34.58
Cp 1 2 7.25p
Rs 1 N3 0.00032
L1 N3 2 0.33u
.ends 1190_744301033_0.33u
*******
.subckt 1190_744301047_0.47u 1 2
Rp 1 2 47.76
Cp 1 2 0.128p
Rs 1 N3 0.00032
L1 N3 2 0.47u
.ends 1190_744301047_0.47u
*******
.subckt 1240_744304010_0.1u 1 2
Rp 1 2 41.01
Cp 1 2 9.08p
Rs 1 N3 0.00017
L1 N3 2 0.1u
.ends 1240_744304010_0.1u
*******
.subckt 1240_744304016_0.16u 1 2
Rp 1 2 59.08
Cp 1 2 17.7p
Rs 1 N3 0.00017
L1 N3 2 0.16u
.ends 1240_744304016_0.16u
*******
.subckt 1240_744304022_0.22u 1 2
Rp 1 2 51.23
Cp 1 2 22.68p
Rs 1 N3 0.00017
L1 N3 2 0.22u
.ends 1240_744304022_0.22u
*******
.subckt 1350_744305022_0.22u 1 2
Rp 1 2 55.28
Cp 1 2 0.247p
Rs 1 N3 0.000155
L1 N3 2 0.22u
.ends 1350_744305022_0.22u
*******
.subckt 1350_744305033_0.33u 1 2
Rp 1 2 58.24
Cp 1 2 40.74p
Rs 1 N3 0.000155
L1 N3 2 0.33u
.ends 1350_744305033_0.33u
*******
.subckt 1350_744305040_0.4u 1 2
Rp 1 2 62.85
Cp 1 2 22.58p
Rs 1 N3 0.000155
L1 N3 2 0.4u
.ends 1350_744305040_0.4u
*******
.subckt 1390_744309012_0.12u 1 2
Rp 1 2 49.98
Cp 1 2 0.01p
Rs 1 N3 0.000165
L1 N3 2 0.12u
.ends 1390_744309012_0.12u
*******
.subckt 1390_744309025_0.25u 1 2
Rp 1 2 41.08
Cp 1 2 0.994p
Rs 1 N3 0.000165
L1 N3 2 0.25u
.ends 1390_744309025_0.25u
*******
.subckt 1390_744309033_0.33u 1 2
Rp 1 2 41.5
Cp 1 2 2.38p
Rs 1 N3 0.000165
L1 N3 2 0.33u
.ends 1390_744309033_0.33u
*******
.subckt 1390_744309047_0.47u 1 2
Rp 1 2 39.42
Cp 1 2 4.62p
Rs 1 N3 0.000165
L1 N3 2 0.47u
.ends 1390_744309047_0.47u
*******
.subckt 7050_744302007_0.072u 1 2
Rp 1 2 42.42
Cp 1 2 18.39p
Rs 1 N3 0.000235
L1 N3 2 0.072u
.ends 7050_744302007_0.072u
*******
.subckt 7050_744302010_0.105u 1 2
Rp 1 2 35.46
Cp 1 2 50.45p
Rs 1 N3 0.000235
L1 N3 2 0.105u
.ends 7050_744302010_0.105u
*******
.subckt 7050_744302015_0.15u 1 2
Rp 1 2 51.16
Cp 1 2 46.07p
Rs 1 N3 0.000235
L1 N3 2 0.15u
.ends 7050_744302015_0.15u
*******
.subckt 7070_744307012_0.12u 1 2
Rp 1 2 41.79
Cp 1 2 0.694p
Rs 1 N3 0.00033
L1 N3 2 0.12u
.ends 7070_744307012_0.12u
*******
.subckt 7070_744307016_0.16u 1 2
Rp 1 2 42.31
Cp 1 2 0.429p
Rs 1 N3 0.00033
L1 N3 2 0.16u
.ends 7070_744307016_0.16u
*******
.subckt 7070_744307022_0.22u 1 2
Rp 1 2 47.3
Cp 1 2 0.664p
Rs 1 N3 0.00033
L1 N3 2 0.22u
.ends 7070_744307022_0.22u
*******
