*******************************************************
* Manufacturer: 		Wurth Elektronik
* Kinds:			SMD High Current Inductor
* Matchcode: 		WE-HCF
* Library Type:		LTspice
* Version: 		rev18a
* Created/modified by:	Fredo Huang
* Date and Time   :		2018-01-03
* Team: 			eiSos EDA Service
* Contact: 		libraries@we-online.com
********************************************************
.subckt 2013_7443630070_0.7u 1 2
Rp 1 2 260.45
Cp 1 2 6.84p
Rs 1 N3 0.000829
L1 N3 2 0.7u
.ends 2013_7443630070_0.7u
*******
.subckt 2013_7443630140_1.4u 1 2
Rp 1 2 453.4
Cp 1 2 6.68p
Rs 1 N3 0.001083
L1 N3 2 1.4u
.ends 2013_7443630140_1.4u
*******
.subckt 2013_7443630220_2.2u 1 2
Rp 1 2 756.5
Cp 1 2 8.26p
Rs 1 N3 0.0015
L1 N3 2 2.2u
.ends 2013_7443630220_2.2u
*******
.subckt 2013_7443630310_3.1u 1 2
Rp 1 2 984.5
Cp 1 2 6.49p
Rs 1 N3 0.002085
L1 N3 2 3.1u
.ends 2013_7443630310_3.1u
*******
.subckt 2013_7443630420_4.2u 1 2
Rp 1 2 1330
Cp 1 2 7.68p
Rs 1 N3 0.003038
L1 N3 2 4.2u
.ends 2013_7443630420_4.2u
*******
.subckt 2013_7443630550_5.5u 1 2
Rp 1 2 1510
Cp 1 2 7.4p
Rs 1 N3 0.004
L1 N3 2 5.5u
.ends 2013_7443630550_5.5u
*******
.subckt 2013_7443630700_7u 1 2
Rp 1 2 1680
Cp 1 2 9.79p
Rs 1 N3 0.005608
L1 N3 2 7u
.ends 2013_7443630700_7u
*******
.subckt 2013_7443630860_8.6u 1 2
Rp 1 2 2488
Cp 1 2 9.29p
Rs 1 N3 0.007186
L1 N3 2 8.6u
.ends 2013_7443630860_8.6u
*******
.subckt 2013_7443631000_10u 1 2
Rp 1 2 2209
Cp 1 2 10.05p
Rs 1 N3 0.00796
L1 N3 2 10u
.ends 2013_7443631000_10u
*******
.subckt 2013_7443631500_15u 1 2
Rp 1 2 7000
Cp 1 2 6.33p
Rs 1 N3 0.0087
L1 N3 2 15u
.ends 2013_7443631500_15u
*******
.subckt 2013_7443632200_22u 1 2
Rp 1 2 9210
Cp 1 2 5.04p
Rs 1 N3 0.01065
L1 N3 2 22u
.ends 2013_7443632200_22u
*******
.subckt 2013_7443633300_33u 1 2
Rp 1 2 9745
Cp 1 2 6.23p
Rs 1 N3 0.0114
L1 N3 2 33u
.ends 2013_7443633300_33u
*******
.subckt 2013_7443634700_47u 1 2
Rp 1 2 11590
Cp 1 2 6.62p
Rs 1 N3 0.0122
L1 N3 2 47u
.ends 2013_7443634700_47u
*******
.subckt 2815_74436410150_1.5u 1 2
Rp 1 2 1082
Cp 1 2 9.173p
Rs 1 N3 0.00133
L1 N3 2 1.5u
.ends 2815_74436410150_1.5u
*******
.subckt 2815_74436410220_2.2u 1 2
Rp 1 2 1034
Cp 1 2 10.39p
Rs 1 N3 0.00133
L1 N3 2 2.2u
.ends 2815_74436410220_2.2u
*******
.subckt 2815_74436410330_3.3u 1 2
Rp 1 2 1179
Cp 1 2 11.15p
Rs 1 N3 0.00133
L1 N3 2 3.3u
.ends 2815_74436410330_3.3u
*******
.subckt 2815_74436410470_4.7u 1 2
Rp 1 2 1219
Cp 1 2 12.36p
Rs 1 N3 0.00133
L1 N3 2 4.7u
.ends 2815_74436410470_4.7u
*******
.subckt 2815_74436410680_6.8u 1 2
Rp 1 2 1214
Cp 1 2 13.33p
Rs 1 N3 0.00133
L1 N3 2 6.8u
.ends 2815_74436410680_6.8u
*******
.subckt 2815_74436411000_10u 1 2
Rp 1 2 1230
Cp 1 2 13.79p
Rs 1 N3 0.00133
L1 N3 2 10u
.ends 2815_74436411000_10u
*******
.subckt 2815_74436411500_15u 1 2
Rp 1 2 1294
Cp 1 2 14.97p
Rs 1 N3 0.00133
L1 N3 2 15u
.ends 2815_74436411500_15u
*******
.subckt 2815_74436412200_22u 1 2
Rp 1 2 1395
Cp 1 2 17.1p
Rs 1 N3 0.00133
L1 N3 2 22u
.ends 2815_74436412200_22u
*******
.subckt 2815_74436413300_33u 1 2
Rp 1 2 1543
Cp 1 2 18.36p
Rs 1 N3 0.00133
L1 N3 2 33u
.ends 2815_74436413300_33u
*******
.subckt 2818_7443640330_3.3u 1 2
Rp 1 2 1120
Cp 1 2 17.55p
Rs 1 N3 0.0024
L1 N3 2 3.3u
.ends 2818_7443640330_3.3u
*******
.subckt 2818_7443640470_4.7u 1 2
Rp 1 2 1190
Cp 1 2 17.91p
Rs 1 N3 0.0024
L1 N3 2 4.7u
.ends 2818_7443640470_4.7u
*******
.subckt 2818_7443640680_6.8u 1 2
Rp 1 2 1230
Cp 1 2 18.73p
Rs 1 N3 0.0024
L1 N3 2 6.8u
.ends 2818_7443640680_6.8u
*******
.subckt 2818_7443641000_10u 1 2
Rp 1 2 1310
Cp 1 2 18.05p
Rs 1 N3 0.0024
L1 N3 2 10u
.ends 2818_7443641000_10u
*******
.subckt 2818_7443641500_15u 1 2
Rp 1 2 1330
Cp 1 2 18.29p
Rs 1 N3 0.0024
L1 N3 2 15u
.ends 2818_7443641500_15u
*******
.subckt 2818_7443642200_22u 1 2
Rp 1 2 1440
Cp 1 2 19.93p
Rs 1 N3 0.0024
L1 N3 2 22u
.ends 2818_7443642200_22u
*******
.subckt 2818_7443643300_33u 1 2
Rp 1 2 1470
Cp 1 2 17.8p
Rs 1 N3 0.0024
L1 N3 2 33u
.ends 2818_7443643300_33u
*******
