*********************************************************
* Manufacturer: 		Wurth Elektronik
* Kinds:			Power Inductor
* Matchcode: 		WE-HCW
* Library Type:		LTspice
* Version: 		rev18a
* Created/modified by:	Fredo Huang
* Date and Time   :		2018-01-03
* Team: 			eiSos EDA Service
* Contact: 		libraries@we-online.com
*********************************************************
.subckt 1208_74435600300_0.3u 1 2
Rp 1 2 256.869
Cp 1 2 1.86p
Rs 1 N3 0.00062
L1 N3 2 0.3u
.ends 1208_74435600300_0.3u
*******
