**************************************************
* Manufacturer: 		Wurth Elektronik
* Kinds:			SMD Power Inductor
* Matchcode: 		WE-LQS
* Library Type:		LTspice
* Version: 		rev18a
* Created/modified by:	Fredo Huang
* Date and Time   :		2018-01-03
* Team: 			eiSos EDA Service
* Contact: 		libraries@we-online.com
**************************************************
.subckt 2512_744040240016_0.16u 1 2
Rp 1 2 622.24
Cp 1 2 0.53p
Rs 1 N3 0.016
L1 N3 2 0.16u
.ends 2512_744040240016_0.16u
*******
.subckt 2512_744040240047_0.47u 1 2
Rp 1 2 1626.69
Cp 1 2 1.093p
Rs 1 N3 0.032
L1 N3 2 0.47u
.ends 2512_744040240047_0.47u
*******
.subckt 2512_744040240068_0.68u 1 2
Rp 1 2 1882.65
Cp 1 2 1.415p
Rs 1 N3 0.035
L1 N3 2 0.68u
.ends 2512_744040240068_0.68u
*******
.subckt 2512_74404024010_1u 1 2
Rp 1 2 1713.01
Cp 1 2 1.396p
Rs 1 N3 0.037
L1 N3 2 1u
.ends 2512_74404024010_1u
*******
.subckt 2512_74404024015_1.5u 1 2
Rp 1 2 3350.5
Cp 1 2 1.867p
Rs 1 N3 0.065
L1 N3 2 1.5u
.ends 2512_74404024015_1.5u
*******
.subckt 2512_74404024022_2.2u 1 2
Rp 1 2 3570.17
Cp 1 2 2.073p
Rs 1 N3 0.08
L1 N3 2 2.2u
.ends 2512_74404024022_2.2u
*******
.subckt 2512_74404024033_3.3u 1 2
Rp 1 2 4634.13
Cp 1 2 2.28p
Rs 1 N3 0.12
L1 N3 2 3.3u
.ends 2512_74404024033_3.3u
*******
.subckt 2512_74404024047_4.7u 1 2
Rp 1 2 5885.21
Cp 1 2 2.658p
Rs 1 N3 0.175
L1 N3 2 4.7u
.ends 2512_74404024047_4.7u
*******
.subckt 2512_74404024068_6.8u 1 2
Rp 1 2 8632.28
Cp 1 2 2.432p
Rs 1 N3 0.3
L1 N3 2 6.8u
.ends 2512_74404024068_6.8u
*******
.subckt 2512_74404024100_10u 1 2
Rp 1 2 11069.7
Cp 1 2 2.144p
Rs 1 N3 0.435
L1 N3 2 10u
.ends 2512_74404024100_10u
*******
.subckt 2512_74404024150_15u 1 2
Rp 1 2 10571.2
Cp 1 2 2.265p
Rs 1 N3 0.83
L1 N3 2 15u
.ends 2512_74404024150_15u
*******
.subckt 2512_74404024180_18u 1 2
Rp 1 2 19398.2
Cp 1 2 2.337p
Rs 1 N3 0.83
L1 N3 2 18u
.ends 2512_74404024180_18u
*******
.subckt 2512_74404024220_22u 1 2
Rp 1 2 19406.8
Cp 1 2 2.405p
Rs 1 N3 0.91
L1 N3 2 22u
.ends 2512_74404024220_22u
*******
.subckt 2512_74404024330_33u 1 2
Rp 1 2 29697.6
Cp 1 2 2.697p
Rs 1 N3 1.53
L1 N3 2 33u
.ends 2512_74404024330_33u
*******
.subckt 2512_74404024470_47u 1 2
Rp 1 2 33051
Cp 1 2 3.141p
Rs 1 N3 1.6
L1 N3 2 47u
.ends 2512_74404024470_47u
*******
.subckt 3015_744040320047_0.47u 1 2
Rp 1 2 528.945
Cp 1 2 0.712p
Rs 1 N3 0.018
L1 N3 2 0.47u
.ends 3015_744040320047_0.47u
*******
.subckt 3015_74404032010_1u 1 2
Rp 1 2 1774.56
Cp 1 2 1.72p
Rs 1 N3 0.033
L1 N3 2 1u
.ends 3015_74404032010_1u
*******
.subckt 3015_74404032015_1.5u 1 2
Rp 1 2 2249.94
Cp 1 2 1.976p
Rs 1 N3 0.04
L1 N3 2 1.5u
.ends 3015_74404032015_1.5u
*******
.subckt 3015_74404032022_2.2u 1 2
Rp 1 2 2742.87
Cp 1 2 2.351p
Rs 1 N3 0.05
L1 N3 2 2.2u
.ends 3015_74404032022_2.2u
*******
.subckt 3015_74404032033_3.3u 1 2
Rp 1 2 4117
Cp 1 2 1.808p
Rs 1 N3 0.07
L1 N3 2 3.3u
.ends 3015_74404032033_3.3u
*******
.subckt 3015_74404032047_4.7u 1 2
Rp 1 2 4847.4
Cp 1 2 2.494p
Rs 1 N3 0.096
L1 N3 2 4.7u
.ends 3015_74404032047_4.7u
*******
.subckt 3015_74404032068_6.8u 1 2
Rp 1 2 5528.9
Cp 1 2 2.522p
Rs 1 N3 0.12
L1 N3 2 6.8u
.ends 3015_74404032068_6.8u
*******
.subckt 3015_74404032100_10u 1 2
Rp 1 2 9125.7
Cp 1 2 2.754p
Rs 1 N3 0.23
L1 N3 2 10u
.ends 3015_74404032100_10u
*******
.subckt 3015_74404032150_15u 1 2
Rp 1 2 10875.6
Cp 1 2 3.295p
Rs 1 N3 0.3
L1 N3 2 15u
.ends 3015_74404032150_15u
*******
.subckt 3015_74404032220_22u 1 2
Rp 1 2 14300.5
Cp 1 2 3.189p
Rs 1 N3 0.45
L1 N3 2 22u
.ends 3015_74404032220_22u
*******
.subckt 3015_74404032330_33u 1 2
Rp 1 2 17543.5
Cp 1 2 3.426p
Rs 1 N3 0.911
L1 N3 2 33u
.ends 3015_74404032330_33u
*******
.subckt 3015_74404032470_47u 1 2
Rp 1 2 19210
Cp 1 2 3.74p
Rs 1 N3 1.05
L1 N3 2 47u
.ends 3015_74404032470_47u
*******
.subckt 4012_744040410047_0.47u 1 2
Rp 1 2 759.195
Cp 1 2 0.767p
Rs 1 N3 0.028
L1 N3 2 0.47u
.ends 4012_744040410047_0.47u
*******
.subckt 4012_74404041010_1u 1 2
Rp 1 2 1977
Cp 1 2 1.191p
Rs 1 N3 0.041
L1 N3 2 1u
.ends 4012_74404041010_1u
*******
.subckt 4012_74404041033_3.3u 1 2
Rp 1 2 3703
Cp 1 2 2.286p
Rs 1 N3 0.069
L1 N3 2 3.3u
.ends 4012_74404041033_3.3u
*******
.subckt 4012_74404041047_4.7u 1 2
Rp 1 2 4166
Cp 1 2 2.554p
Rs 1 N3 0.091
L1 N3 2 4.7u
.ends 4012_74404041047_4.7u
*******
.subckt 4012_74404041100_10u 1 2
Rp 1 2 7002
Cp 1 2 3.18p
Rs 1 N3 0.168
L1 N3 2 10u
.ends 4012_74404041100_10u
*******
.subckt 4012_74404041330_33u 1 2
Rp 1 2 18689
Cp 1 2 3.615p
Rs 1 N3 0.628
L1 N3 2 33u
.ends 4012_74404041330_33u
*******
.subckt 4012_74404041470_47u 1 2
Rp 1 2 23474
Cp 1 2 3.611p
Rs 1 N3 0.987
L1 N3 2 47u
.ends 4012_74404041470_47u
*******
.subckt 4012_74404041680_68u 1 2
Rp 1 2 32845
Cp 1 2 3.542p
Rs 1 N3 1.495
L1 N3 2 68u
.ends 4012_74404041680_68u
*******
.subckt 4012_74404041101_100u 1 2
Rp 1 2 36368
Cp 1 2 3.945p
Rs 1 N3 1.697
L1 N3 2 100u
.ends 4012_74404041101_100u
*******
.subckt 4018_744040420033_0.33u 1 2
Rp 1 2 784.914
Cp 1 2 1.044p
Rs 1 N3 0.013
L1 N3 2 0.33u
.ends 4018_744040420033_0.33u
*******
.subckt 4018_74404042010_1u 1 2
Rp 1 2 2231.85
Cp 1 2 2.054p
Rs 1 N3 0.027
L1 N3 2 1u
.ends 4018_74404042010_1u
*******
.subckt 4018_74404042015_1.5u 1 2
Rp 1 2 2724.08
Cp 1 2 2.327p
Rs 1 N3 0.031
L1 N3 2 1.5u
.ends 4018_74404042015_1.5u
*******
.subckt 4018_74404042022_2.2u 1 2
Rp 1 2 3751.82
Cp 1 2 2.55p
Rs 1 N3 0.042
L1 N3 2 2.2u
.ends 4018_74404042022_2.2u
*******
.subckt 4018_74404042033_3.3u 1 2
Rp 1 2 4600.61
Cp 1 2 3.18p
Rs 1 N3 0.055
L1 N3 2 3.3u
.ends 4018_74404042033_3.3u
*******
.subckt 4018_74404042047_4.7u 1 2
Rp 1 2 5553.94
Cp 1 2 3.01p
Rs 1 N3 0.07
L1 N3 2 4.7u
.ends 4018_74404042047_4.7u
*******
.subckt 4018_74404042068_6.8u 1 2
Rp 1 2 6815.98
Cp 1 2 2.931p
Rs 1 N3 0.098
L1 N3 2 6.8u
.ends 4018_74404042068_6.8u
*******
.subckt 4018_74404042100_10u 1 2
Rp 1 2 8882.27
Cp 1 2 3.434p
Rs 1 N3 0.15
L1 N3 2 10u
.ends 4018_74404042100_10u
*******
.subckt 4018_74404042150_15u 1 2
Rp 1 2 12553.3
Cp 1 2 3.701p
Rs 1 N3 0.21
L1 N3 2 15u
.ends 4018_74404042150_15u
*******
.subckt 4018_74404042220_22u 1 2
Rp 1 2 15110.8
Cp 1 2 4.368p
Rs 1 N3 0.29
L1 N3 2 22u
.ends 4018_74404042220_22u
*******
.subckt 4018_74404042330_33u 1 2
Rp 1 2 20252.2
Cp 1 2 4.143p
Rs 1 N3 0.46
L1 N3 2 33u
.ends 4018_74404042330_33u
*******
.subckt 4018_74404042470_47u 1 2
Rp 1 2 24253.8
Cp 1 2 4.283p
Rs 1 N3 0.62
L1 N3 2 47u
.ends 4018_74404042470_47u
*******
.subckt 4018_74404042680_68u 1 2
Rp 1 2 34370
Cp 1 2 5.152p
Rs 1 N3 0.84
L1 N3 2 68u
.ends 4018_74404042680_68u
*******
.subckt 4018_74404042101_100u 1 2
Rp 1 2 42439
Cp 1 2 4.929p
Rs 1 N3 1.43
L1 N3 2 100u
.ends 4018_74404042101_100u
*******
.subckt 4018_74404042151_150u 1 2
Rp 1 2 81592
Cp 1 2 4.448p
Rs 1 N3 2.853
L1 N3 2 150u
.ends 4018_74404042151_150u
*******
.subckt 4018_74404042221_220u 1 2
Rp 1 2 97779
Cp 1 2 5.191p
Rs 1 N3 3.45
L1 N3 2 220u
.ends 4018_74404042221_220u
*******
.subckt 4018_74404042331_330u 1 2
Rp 1 2 152400
Cp 1 2 4.22p
Rs 1 N3 5.3
L1 N3 2 330u
.ends 4018_74404042331_330u
*******
.subckt 5020_744040520047_0.47u 1 2
Rp 1 2 470
Cp 1 2 2.344p
Rs 1 N3 0.0139
L1 N3 2 0.47u
.ends 5020_744040520047_0.47u
*******
.subckt 5020_74404052010_1u 1 2
Rp 1 2 746
Cp 1 2 3.539p
Rs 1 N3 0.0198
L1 N3 2 1u
.ends 5020_74404052010_1u
*******
.subckt 5020_74404052012_1.2u 1 2
Rp 1 2 1151.12
Cp 1 2 3.832p
Rs 1 N3 0.0234
L1 N3 2 1.2u
.ends 5020_74404052012_1.2u
*******
.subckt 5020_74404052015_1.5u 1 2
Rp 1 2 1375.96
Cp 1 2 4.57p
Rs 1 N3 0.0257
L1 N3 2 1.5u
.ends 5020_74404052015_1.5u
*******
.subckt 5020_74404052022_2.2u 1 2
Rp 1 2 1789
Cp 1 2 4.818p
Rs 1 N3 0.0316
L1 N3 2 2.2u
.ends 5020_74404052022_2.2u
*******
.subckt 5020_74404052033_3.3u 1 2
Rp 1 2 2582.1
Cp 1 2 4.266p
Rs 1 N3 0.0422
L1 N3 2 3.3u
.ends 5020_74404052033_3.3u
*******
.subckt 5020_74404052039_3.9u 1 2
Rp 1 2 2489
Cp 1 2 4.171p
Rs 1 N3 0.0505
L1 N3 2 3.9u
.ends 5020_74404052039_3.9u
*******
.subckt 5020_74404052047_4.7u 1 2
Rp 1 2 3136
Cp 1 2 4.458p
Rs 1 N3 0.0559
L1 N3 2 4.7u
.ends 5020_74404052047_4.7u
*******
.subckt 5020_74404052056_5.6u 1 2
Rp 1 2 2983
Cp 1 2 7.833p
Rs 1 N3 0.0675
L1 N3 2 5.6u
.ends 5020_74404052056_5.6u
*******
.subckt 5020_74404052068_6.8u 1 2
Rp 1 2 3076
Cp 1 2 7.38p
Rs 1 N3 0.0827
L1 N3 2 6.8u
.ends 5020_74404052068_6.8u
*******
.subckt 5020_74404052075_7.5u 1 2
Rp 1 2 4617
Cp 1 2 4.671p
Rs 1 N3 0.0968
L1 N3 2 7.5u
.ends 5020_74404052075_7.5u
*******
.subckt 5020_74404052100_10u 1 2
Rp 1 2 5418
Cp 1 2 4.975p
Rs 1 N3 0.109
L1 N3 2 10u
.ends 5020_74404052100_10u
*******
.subckt 5020_74404052220_22u 1 2
Rp 1 2 6538
Cp 1 2 11.651p
Rs 1 N3 0.225
L1 N3 2 22u
.ends 5020_74404052220_22u
*******
.subckt 5020_74404052330_33u 1 2
Rp 1 2 9497
Cp 1 2 10.466p
Rs 1 N3 0.387
L1 N3 2 33u
.ends 5020_74404052330_33u
*******
.subckt 5020_74404052470_47u 1 2
Rp 1 2 10730
Cp 1 2 11.891p
Rs 1 N3 0.521
L1 N3 2 47u
.ends 5020_74404052470_47u
*******
.subckt 5020_74404052680_68u 1 2
Rp 1 2 14109
Cp 1 2 11.239p
Rs 1 N3 0.627
L1 N3 2 68u
.ends 5020_74404052680_68u
*******
.subckt 5020_74404052101_100u 1 2
Rp 1 2 16782
Cp 1 2 11.992p
Rs 1 N3 1.09
L1 N3 2 100u
.ends 5020_74404052101_100u
*******
.subckt 5040_74404054010_1u 1 2
Rp 1 2 2382.76
Cp 1 2 1.052p
Rs 1 N3 0.012
L1 N3 2 1u
.ends 5040_74404054010_1u
*******
.subckt 5040_74404054015_1.5u 1 2
Rp 1 2 2903.89
Cp 1 2 1.298p
Rs 1 N3 0.015
L1 N3 2 1.5u
.ends 5040_74404054015_1.5u
*******
.subckt 5040_74404054022_2.2u 1 2
Rp 1 2 3313.2
Cp 1 2 2.727p
Rs 1 N3 0.019
L1 N3 2 2.2u
.ends 5040_74404054022_2.2u
*******
.subckt 5040_74404054033_3.3u 1 2
Rp 1 2 4741.48
Cp 1 2 4.03p
Rs 1 N3 0.024
L1 N3 2 3.3u
.ends 5040_74404054033_3.3u
*******
.subckt 5040_74404054047_4.7u 1 2
Rp 1 2 6232.7
Cp 1 2 4.214p
Rs 1 N3 0.03
L1 N3 2 4.7u
.ends 5040_74404054047_4.7u
*******
.subckt 5040_74404054068_6.8u 1 2
Rp 1 2 8059.64
Cp 1 2 4.061p
Rs 1 N3 0.043
L1 N3 2 6.8u
.ends 5040_74404054068_6.8u
*******
.subckt 5040_74404054100_10u 1 2
Rp 1 2 11386.7
Cp 1 2 4.559p
Rs 1 N3 0.064
L1 N3 2 10u
.ends 5040_74404054100_10u
*******
.subckt 5040_74404054150_15u 1 2
Rp 1 2 53628.8
Cp 1 2 5.343p
Rs 1 N3 0.086
L1 N3 2 15u
.ends 5040_74404054150_15u
*******
.subckt 5040_74404054220_22u 1 2
Rp 1 2 15968.1
Cp 1 2 4.869p
Rs 1 N3 0.129
L1 N3 2 22u
.ends 5040_74404054220_22u
*******
.subckt 5040_74404054330_33u 1 2
Rp 1 2 16620.3
Cp 1 2 4.978p
Rs 1 N3 0.188
L1 N3 2 33u
.ends 5040_74404054330_33u
*******
.subckt 5040_74404054470_47u 1 2
Rp 1 2 23732.6
Cp 1 2 5.672p
Rs 1 N3 0.272
L1 N3 2 47u
.ends 5040_74404054470_47u
*******
.subckt 5040_74404054680_68u 1 2
Rp 1 2 29490.5
Cp 1 2 5.275p
Rs 1 N3 0.4
L1 N3 2 68u
.ends 5040_74404054680_68u
*******
.subckt 5040_74404054101_100u 1 2
Rp 1 2 38103.4
Cp 1 2 6.183p
Rs 1 N3 0.56
L1 N3 2 100u
.ends 5040_74404054101_100u
*******
.subckt 5040_74404054102_1m 1 2
Rp 1 2 358414
Cp 1 2 6.681p
Rs 1 N3 6
L1 N3 2 1000u
.ends 5040_74404054102_1m
*******
.subckt 6028_744040630082_0.82u 1 2
Rp 1 2 1681
Cp 1 2 2.261p
Rs 1 N3 0.01
L1 N3 2 0.82u
.ends 6028_744040630082_0.82u
*******
.subckt 6028_74404063010_1u 1 2
Rp 1 2 1805.17
Cp 1 2 2.232p
Rs 1 N3 0.01
L1 N3 2 1u
.ends 6028_74404063010_1u
*******
.subckt 6028_74404063012_1.2u 1 2
Rp 1 2 2309
Cp 1 2 2.72p
Rs 1 N3 0.011
L1 N3 2 1.2u
.ends 6028_74404063012_1.2u
*******
.subckt 6028_74404063015_1.5u 1 2
Rp 1 2 2500.45
Cp 1 2 2.49p
Rs 1 N3 0.013
L1 N3 2 1.5u
.ends 6028_74404063015_1.5u
*******
.subckt 6028_74404063022_2.2u 1 2
Rp 1 2 4346.53
Cp 1 2 2.853p
Rs 1 N3 0.02
L1 N3 2 2.2u
.ends 6028_74404063022_2.2u
*******
.subckt 6028_74404063033_3.3u 1 2
Rp 1 2 5465.48
Cp 1 2 2.788p
Rs 1 N3 0.025
L1 N3 2 3.3u
.ends 6028_74404063033_3.3u
*******
.subckt 6028_74404063047_4.7u 1 2
Rp 1 2 6478.1
Cp 1 2 2.998p
Rs 1 N3 0.03
L1 N3 2 4.7u
.ends 6028_74404063047_4.7u
*******
.subckt 6028_74404063068_6.8u 1 2
Rp 1 2 8901.72
Cp 1 2 2.932p
Rs 1 N3 0.047
L1 N3 2 6.8u
.ends 6028_74404063068_6.8u
*******
.subckt 6028_74404063082_8.2u 1 2
Rp 1 2 10763.8
Cp 1 2 3.172p
Rs 1 N3 0.055
L1 N3 2 8.2u
.ends 6028_74404063082_8.2u
*******
.subckt 6028_74404063100_10u 1 2
Rp 1 2 11728.4
Cp 1 2 3.136p
Rs 1 N3 0.072
L1 N3 2 10u
.ends 6028_74404063100_10u
*******
.subckt 6028_74404063150_15u 1 2
Rp 1 2 52665.5
Cp 1 2 3.776p
Rs 1 N3 0.125
L1 N3 2 15u
.ends 6028_74404063150_15u
*******
.subckt 6028_74404063220_22u 1 2
Rp 1 2 16563.4
Cp 1 2 3.407p
Rs 1 N3 0.14
L1 N3 2 22u
.ends 6028_74404063220_22u
*******
.subckt 6028_74404063330_33u 1 2
Rp 1 2 21914.7
Cp 1 2 3.566p
Rs 1 N3 0.185
L1 N3 2 33u
.ends 6028_74404063330_33u
*******
.subckt 6028_74404063470_47u 1 2
Rp 1 2 26736.1
Cp 1 2 3.339p
Rs 1 N3 0.315
L1 N3 2 47u
.ends 6028_74404063470_47u
*******
.subckt 6028_74404063680_68u 1 2
Rp 1 2 35422.8
Cp 1 2 3.361p
Rs 1 N3 0.36
L1 N3 2 68u
.ends 6028_74404063680_68u
*******
.subckt 6028_74404063101_100u 1 2
Rp 1 2 38894.8
Cp 1 2 3.508p
Rs 1 N3 0.5
L1 N3 2 100u
.ends 6028_74404063101_100u
*******
.subckt 6028_74404063102_1m 1 2
Rp 1 2 324834
Cp 1 2 6.145p
Rs 1 N3 6.44
L1 N3 2 1000u
.ends 6028_74404063102_1m
*******
.subckt 6045_744040640047_0.47u 1 2
Rp 1 2 1691
Cp 1 2 1.091p
Rs 1 N3 0.006
L1 N3 2 0.47u
.ends 6045_744040640047_0.47u
*******
.subckt 6045_744040640068_0.68u 1 2
Rp 1 2 1552
Cp 1 2 1.595p
Rs 1 N3 0.01
L1 N3 2 0.68u
.ends 6045_744040640068_0.68u
*******
.subckt 6045_74404064010_1u 1 2
Rp 1 2 2181.04
Cp 1 2 1.355p
Rs 1 N3 0.011
L1 N3 2 1u
.ends 6045_74404064010_1u
*******
.subckt 6045_74404064012_1.2u 1 2
Rp 1 2 2842.9
Cp 1 2 1.651p
Rs 1 N3 0.01
L1 N3 2 1.2u
.ends 6045_74404064012_1.2u
*******
.subckt 6045_74404064015_1.5u 1 2
Rp 1 2 2606.14
Cp 1 2 2.126p
Rs 1 N3 0.012
L1 N3 2 1.5u
.ends 6045_74404064015_1.5u
*******
.subckt 6045_74404064018_1.8u 1 2
Rp 1 2 3198.37
Cp 1 2 3.204p
Rs 1 N3 0.012
L1 N3 2 1.8u
.ends 6045_74404064018_1.8u
*******
.subckt 6045_74404064022_2.2u 1 2
Rp 1 2 4046.34
Cp 1 2 4.186p
Rs 1 N3 0.014
L1 N3 2 2.2u
.ends 6045_74404064022_2.2u
*******
.subckt 6045_74404064033_3.3u 1 2
Rp 1 2 5231.48
Cp 1 2 4.35p
Rs 1 N3 0.021
L1 N3 2 3.3u
.ends 6045_74404064033_3.3u
*******
.subckt 6045_74404064047_4.7u 1 2
Rp 1 2 7276.7
Cp 1 2 4.755p
Rs 1 N3 0.026
L1 N3 2 4.7u
.ends 6045_74404064047_4.7u
*******
.subckt 6045_74404064068_6.8u 1 2
Rp 1 2 9724.71
Cp 1 2 4.998p
Rs 1 N3 0.031
L1 N3 2 6.8u
.ends 6045_74404064068_6.8u
*******
.subckt 6045_74404064082_8.2u 1 2
Rp 1 2 11183.8
Cp 1 2 5.55p
Rs 1 N3 0.043
L1 N3 2 8.2u
.ends 6045_74404064082_8.2u
*******
.subckt 6045_74404064100_10u 1 2
Rp 1 2 13456.5
Cp 1 2 6.218p
Rs 1 N3 0.048
L1 N3 2 10u
.ends 6045_74404064100_10u
*******
.subckt 6045_74404064120_12u 1 2
Rp 1 2 58118.1
Cp 1 2 7.309p
Rs 1 N3 0.058
L1 N3 2 12u
.ends 6045_74404064120_12u
*******
.subckt 6045_74404064150_15u 1 2
Rp 1 2 13176.9
Cp 1 2 6.008p
Rs 1 N3 0.068
L1 N3 2 15u
.ends 6045_74404064150_15u
*******
.subckt 6045_74404064180_18u 1 2
Rp 1 2 16269.8
Cp 1 2 6.073p
Rs 1 N3 0.081
L1 N3 2 18u
.ends 6045_74404064180_18u
*******
.subckt 6045_74404064220_22u 1 2
Rp 1 2 17209.8
Cp 1 2 6.81p
Rs 1 N3 0.089
L1 N3 2 22u
.ends 6045_74404064220_22u
*******
.subckt 6045_74404064330_33u 1 2
Rp 1 2 23136.6
Cp 1 2 5.91p
Rs 1 N3 0.137
L1 N3 2 33u
.ends 6045_74404064330_33u
*******
.subckt 6045_74404064470_47u 1 2
Rp 1 2 26236.5
Cp 1 2 6.194p
Rs 1 N3 0.2
L1 N3 2 47u
.ends 6045_74404064470_47u
*******
.subckt 6045_74404064680_68u 1 2
Rp 1 2 32154.2
Cp 1 2 7.644p
Rs 1 N3 0.289
L1 N3 2 68u
.ends 6045_74404064680_68u
*******
.subckt 6045_74404064101_100u 1 2
Rp 1 2 49672.9
Cp 1 2 6.475p
Rs 1 N3 0.433
L1 N3 2 100u
.ends 6045_74404064101_100u
*******
.subckt 6045_74404064121_120u 1 2
Rp 1 2 67827
Cp 1 2 7.536p
Rs 1 N3 0.52
L1 N3 2 120u
.ends 6045_74404064121_120u
*******
.subckt 6045_74404064151_150u 1 2
Rp 1 2 88382
Cp 1 2 6.917p
Rs 1 N3 0.57
L1 N3 2 150u
.ends 6045_74404064151_150u
*******
.subckt 6045_74404064221_220u 1 2
Rp 1 2 78077
Cp 1 2 8.148p
Rs 1 N3 0.85
L1 N3 2 220u
.ends 6045_74404064221_220u
*******
.subckt 6045_74404064331_330u 1 2
Rp 1 2 111725
Cp 1 2 7.221p
Rs 1 N3 1.177
L1 N3 2 330u
.ends 6045_74404064331_330u
*******
.subckt 6045_74404064102_1m 1 2
Rp 1 2 282994
Cp 1 2 6.864p
Rs 1 N3 4.783
L1 N3 2 1000u
.ends 6045_74404064102_1m
*******
.subckt 6045_74404064152_1.5m 1 2
Rp 1 2 255651
Cp 1 2 10.652p
Rs 1 N3 6.989
L1 N3 2 1500u
.ends 6045_74404064152_1.5m
*******
.subckt 8040_74404084010_1u 1 2
Rp 1 2 2123.1
Cp 1 2 1.849p
Rs 1 N3 0.008
L1 N3 2 1u
.ends 8040_74404084010_1u
*******
.subckt 8040_74404084015_1.5u 1 2
Rp 1 2 3109.24
Cp 1 2 2.323p
Rs 1 N3 0.01
L1 N3 2 1.5u
.ends 8040_74404084015_1.5u
*******
.subckt 8040_74404084022_2.2u 1 2
Rp 1 2 3754.28
Cp 1 2 4.143p
Rs 1 N3 0.012
L1 N3 2 2.2u
.ends 8040_74404084022_2.2u
*******
.subckt 8040_74404084033_3.3u 1 2
Rp 1 2 5938.22
Cp 1 2 5.26p
Rs 1 N3 0.017
L1 N3 2 3.3u
.ends 8040_74404084033_3.3u
*******
.subckt 8040_74404084047_4.7u 1 2
Rp 1 2 6853.85
Cp 1 2 5.789p
Rs 1 N3 0.019
L1 N3 2 4.7u
.ends 8040_74404084047_4.7u
*******
.subckt 8040_74404084068_6.8u 1 2
Rp 1 2 9486.38
Cp 1 2 5.606p
Rs 1 N3 0.024
L1 N3 2 6.8u
.ends 8040_74404084068_6.8u
*******
.subckt 8040_74404084082_8.2u 1 2
Rp 1 2 11620.5
Cp 1 2 5.95p
Rs 1 N3 0.026
L1 N3 2 8.2u
.ends 8040_74404084082_8.2u
*******
.subckt 8040_74404084100_10u 1 2
Rp 1 2 11946.9
Cp 1 2 5.371p
Rs 1 N3 0.029
L1 N3 2 10u
.ends 8040_74404084100_10u
*******
.subckt 8040_74404084120_12u 1 2
Rp 1 2 53057.6
Cp 1 2 6.726p
Rs 1 N3 0.04
L1 N3 2 12u
.ends 8040_74404084120_12u
*******
.subckt 8040_74404084150_15u 1 2
Rp 1 2 15418.7
Cp 1 2 5.756p
Rs 1 N3 0.047
L1 N3 2 15u
.ends 8040_74404084150_15u
*******
.subckt 8040_74404084180_18u 1 2
Rp 1 2 16468.2
Cp 1 2 5.828p
Rs 1 N3 0.053
L1 N3 2 18u
.ends 8040_74404084180_18u
*******
.subckt 8040_74404084220_22u 1 2
Rp 1 2 19840.6
Cp 1 2 6.469p
Rs 1 N3 0.069
L1 N3 2 22u
.ends 8040_74404084220_22u
*******
.subckt 8040_74404084330_33u 1 2
Rp 1 2 20204.8
Cp 1 2 5.651p
Rs 1 N3 0.097
L1 N3 2 33u
.ends 8040_74404084330_33u
*******
.subckt 8040_74404084470_47u 1 2
Rp 1 2 24457.1
Cp 1 2 7.005p
Rs 1 N3 0.136
L1 N3 2 47u
.ends 8040_74404084470_47u
*******
.subckt 8040_74404084680_68u 1 2
Rp 1 2 35638.3
Cp 1 2 6.312p
Rs 1 N3 0.196
L1 N3 2 68u
.ends 8040_74404084680_68u
*******
.subckt 8040_74404084101_100u 1 2
Rp 1 2 46943.9
Cp 1 2 6.305p
Rs 1 N3 0.29
L1 N3 2 100u
.ends 8040_74404084101_100u
*******
.subckt 8040_74404084121_120u 1 2
Rp 1 2 58710
Cp 1 2 6.795p
Rs 1 N3 0.347
L1 N3 2 120u
.ends 8040_74404084121_120u
*******
.subckt 8040_74404084151_150u 1 2
Rp 1 2 83286
Cp 1 2 7.01p
Rs 1 N3 0.478
L1 N3 2 150u
.ends 8040_74404084151_150u
*******
.subckt 8040_74404084221_220u 1 2
Rp 1 2 105122
Cp 1 2 6.794p
Rs 1 N3 0.592
L1 N3 2 220u
.ends 8040_74404084221_220u
*******
.subckt 8040_74404084331_330u 1 2
Rp 1 2 142263
Cp 1 2 6.937p
Rs 1 N3 0.865
L1 N3 2 330u
.ends 8040_74404084331_330u
*******
.subckt 8040_74404084102_1m 1 2
Rp 1 2 233948
Cp 1 2 7.1p
Rs 1 N3 2.87
L1 N3 2 1000u
.ends 8040_74404084102_1m
*******
