*******************************************************
* Manufacturer: 		Wurth Elektronik
* Kinds:			SMD Metal Alloy Power Inductor
* Matchcode: 		WE-MAPI
* Library Type:		LTspice
* Version: 		rev18a
* Created/modified by:	Fredo Huang
* Date and Time   :		2018-01-03
* Team: 			eiSos EDA Service
* Contact: 		libraries@we-online.com
*******************************************************
.subckt 1610_744383130033_0.33u 1 2
Rp 1 2 1175.84
Cp 1 2 1.636p
Rs 1 N3 0.065
L1 N3 2 0.33u
.ends 1610_744383130033_0.33u
*******
.subckt 1610_744383130047_0.47u 1 2
Rp 1 2 1548.75
Cp 1 2 1.657p
Rs 1 N3 0.077
L1 N3 2 0.47u
.ends 1610_744383130047_0.47u
*******
.subckt 1610_744383130056_0.56u 1 2
Rp 1 2 1864.89
Cp 1 2 1.871p
Rs 1 N3 0.09
L1 N3 2 0.56u
.ends 1610_744383130056_0.56u
*******
.subckt 1610_744383130068_0.68u 1 2
Rp 1 2 2230.25
Cp 1 2 1.975p
Rs 1 N3 0.101
L1 N3 2 0.68u
.ends 1610_744383130068_0.68u
*******
.subckt 1610_744383130082_0.82u 1 2
Rp 1 2 2577.81
Cp 1 2 2.153p
Rs 1 N3 0.115
L1 N3 2 0.82u
.ends 1610_744383130082_0.82u
*******
.subckt 1610_74438313010_1u 1 2
Rp 1 2 3023.53
Cp 1 2 2.117p
Rs 1 N3 0.127
L1 N3 2 1u
.ends 1610_74438313010_1u
*******
.subckt 1610_74438313012_1.2u 1 2
Rp 1 2 3481.56
Cp 1 2 2.087p
Rs 1 N3 0.14
L1 N3 2 1.2u
.ends 1610_74438313012_1.2u
*******
.subckt 1610_74438313015_1.5u 1 2
Rp 1 2 4017.41
Cp 1 2 2.533p
Rs 1 N3 0.189
L1 N3 2 1.5u
.ends 1610_74438313015_1.5u
*******
.subckt 1610_74438313022_2.2u 1 2
Rp 1 2 5651.21
Cp 1 2 2.531p
Rs 1 N3 0.337
L1 N3 2 2.2u
.ends 1610_74438313022_2.2u
*******
.subckt 2010_744383430033_0.33u 1 2
Rp 1 2 1106.76
Cp 1 2 1.883p
Rs 1 N3 0.04
L1 N3 2 0.33u
.ends 2010_744383430033_0.33u
*******
.subckt 2010_744383430047_0.47u 1 2
Rp 1 2 1457.59
Cp 1 2 1.978p
Rs 1 N3 0.049
L1 N3 2 0.47u
.ends 2010_744383430047_0.47u
*******
.subckt 2010_744383430056_0.56u 1 2
Rp 1 2 2075.35
Cp 1 2 2.255p
Rs 1 N3 0.056
L1 N3 2 0.56u
.ends 2010_744383430056_0.56u
*******
.subckt 2010_744383430068_0.68u 1 2
Rp 1 2 2110.67
Cp 1 2 2.137p
Rs 1 N3 0.065
L1 N3 2 0.68u
.ends 2010_744383430068_0.68u
*******
.subckt 2010_744383430082_0.82u 1 2
Rp 1 2 2321.54
Cp 1 2 2.394p
Rs 1 N3 0.071
L1 N3 2 0.82u
.ends 2010_744383430082_0.82u
*******
.subckt 2010_74438343010_1u 1 2
Rp 1 2 3024.49
Cp 1 2 2.649p
Rs 1 N3 0.086
L1 N3 2 1u
.ends 2010_74438343010_1u
*******
.subckt 2010_74438343012_1.2u 1 2
Rp 1 2 3525.59
Cp 1 2 2.63p
Rs 1 N3 0.114
L1 N3 2 1.2u
.ends 2010_74438343012_1.2u
*******
.subckt 2010_74438343015_1.5u 1 2
Rp 1 2 4272.4
Cp 1 2 2.473p
Rs 1 N3 0.15
L1 N3 2 1.5u
.ends 2010_74438343015_1.5u
*******
.subckt 2010_74438343022_2.2u 1 2
Rp 1 2 5817.62
Cp 1 2 2.708p
Rs 1 N3 0.225
L1 N3 2 2.2u
.ends 2010_74438343022_2.2u
*******
.subckt 2506_744383210047_0.47u 1 2
Rp 1 2 1358.8
Cp 1 2 2.201p
Rs 1 N3 0.076
L1 N3 2 0.47u
.ends 2506_744383210047_0.47u
*******
.subckt 2506_74438321010_1u 1 2
Rp 1 2 2580.27
Cp 1 2 2.894p
Rs 1 N3 0.163
L1 N3 2 1u
.ends 2506_74438321010_1u
*******
.subckt 2508_744383220047_0.47u 1 2
Rp 1 2 1328.67
Cp 1 2 2.363p
Rs 1 N3 0.07
L1 N3 2 0.47u
.ends 2508_744383220047_0.47u
*******
.subckt 2508_74438322010_1u 1 2
Rp 1 2 2287
Cp 1 2 2.785p
Rs 1 N3 0.107
L1 N3 2 1u
.ends 2508_74438322010_1u
*******
.subckt 2508_74438322022_2.2u 1 2
Rp 1 2 5454.6
Cp 1 2 3.211p
Rs 1 N3 0.252
L1 N3 2 2.2u
.ends 2508_74438322022_2.2u
*******
.subckt 2510_744383230033_0.33u 1 2
Rp 1 2 759.73
Cp 1 2 2.788p
Rs 1 N3 0.029
L1 N3 2 0.33u
.ends 2510_744383230033_0.33u
*******
.subckt 2510_744383230047_0.47u 1 2
Rp 1 2 807.55
Cp 1 2 2.235p
Rs 1 N3 0.037
L1 N3 2 0.47u
.ends 2510_744383230047_0.47u
*******
.subckt 2510_744383230068_0.68u 1 2
Rp 1 2 1052.9
Cp 1 2 2.576p
Rs 1 N3 0.046
L1 N3 2 0.68u
.ends 2510_744383230068_0.68u
*******
.subckt 2510_744383230082_0.82u 1 2
Rp 1 2 1712.77
Cp 1 2 3.184p
Rs 1 N3 0.053
L1 N3 2 0.82u
.ends 2510_744383230082_0.82u
*******
.subckt 2510_74438323010_1u 1 2
Rp 1 2 2155.33
Cp 1 2 3.992p
Rs 1 N3 0.063
L1 N3 2 1u
.ends 2510_74438323010_1u
*******
.subckt 2510_74438323012_1.2u 1 2
Rp 1 2 2888.67
Cp 1 2 3.384p
Rs 1 N3 0.082
L1 N3 2 1.2u
.ends 2510_74438323012_1.2u
*******
.subckt 2510_74438323015_1.5u 1 2
Rp 1 2 3356.67
Cp 1 2 3.701p
Rs 1 N3 0.092
L1 N3 2 1.5u
.ends 2510_74438323015_1.5u
*******
.subckt 2510_74438323022_2.2u 1 2
Rp 1 2 2863
Cp 1 2 2.634p
Rs 1 N3 0.147
L1 N3 2 2.2u
.ends 2510_74438323022_2.2u
*******
.subckt 2510_74438323033_3.3u 1 2
Rp 1 2 5818.67
Cp 1 2 3.66p
Rs 1 N3 0.22
L1 N3 2 3.3u
.ends 2510_74438323033_3.3u
*******
.subckt 2510_74438323047_4.7u 1 2
Rp 1 2 8723.67
Cp 1 2 4.556p
Rs 1 N3 0.338
L1 N3 2 4.7u
.ends 2510_74438323047_4.7u
*******
.subckt 2510_74438323068_6.8u 1 2
Rp 1 2 12938.3
Cp 1 2 3.909p
Rs 1 N3 0.563
L1 N3 2 6.8u
.ends 2510_74438323068_6.8u
*******
.subckt 2510_74438323082_8.2u 1 2
Rp 1 2 14641.6
Cp 1 2 4.429p
Rs 1 N3 0.646
L1 N3 2 8.2u
.ends 2510_74438323082_8.2u
*******
.subckt 2510_74438323100_10u 1 2
Rp 1 2 17001.7
Cp 1 2 4.388p
Rs 1 N3 0.733
L1 N3 2 10u
.ends 2510_74438323100_10u
*******
.subckt 2512_744383240047_0.47u 1 2
Rp 1 2 1038.46
Cp 1 2 2.96p
Rs 1 N3 0.03
L1 N3 2 0.47u
.ends 2512_744383240047_0.47u
*******
.subckt 2512_744383240056_0.56u 1 2
Rp 1 2 1377.7
Cp 1 2 3.265p
Rs 1 N3 0.037
L1 N3 2 0.56u
.ends 2512_744383240056_0.56u
*******
.subckt 2512_744383240068_0.68u 1 2
Rp 1 2 1711.28
Cp 1 2 3.428p
Rs 1 N3 0.045
L1 N3 2 0.68u
.ends 2512_744383240068_0.68u
*******
.subckt 2512_74438324010_1u 1 2
Rp 1 2 2168.09
Cp 1 2 3.758p
Rs 1 N3 0.049
L1 N3 2 1u
.ends 2512_74438324010_1u
*******
.subckt 2512_74438324012_1.2u 1 2
Rp 1 2 2597.71
Cp 1 2 3.901p
Rs 1 N3 0.067
L1 N3 2 1.2u
.ends 2512_74438324012_1.2u
*******
.subckt 2512_74438324015_1.5u 1 2
Rp 1 2 3445.78
Cp 1 2 4.426p
Rs 1 N3 0.082
L1 N3 2 1.5u
.ends 2512_74438324015_1.5u
*******
.subckt 2512_74438324022_2.2u 1 2
Rp 1 2 4211.98
Cp 1 2 4.059p
Rs 1 N3 0.123
L1 N3 2 2.2u
.ends 2512_74438324022_2.2u
*******
.subckt 2512_74438324033_3.3u 1 2
Rp 1 2 7042.2
Cp 1 2 4.393p
Rs 1 N3 0.226
L1 N3 2 3.3u
.ends 2512_74438324033_3.3u
*******
.subckt 2512_74438324047_4.7u 1 2
Rp 1 2 9138.24
Cp 1 2 4.322p
Rs 1 N3 0.3
L1 N3 2 4.7u
.ends 2512_74438324047_4.7u
*******
.subckt 2512_74438324056_5.6u 1 2
Rp 1 2 10933.6
Cp 1 2 5.195p
Rs 1 N3 0.405
L1 N3 2 5.6u
.ends 2512_74438324056_5.6u
*******
.subckt 2512_74438324068_6.8u 1 2
Rp 1 2 12309.7
Cp 1 2 4.999p
Rs 1 N3 0.56
L1 N3 2 6.8u
.ends 2512_74438324068_6.8u
*******
.subckt 2512_74438324082_8.2u 1 2
Rp 1 2 14021.7
Cp 1 2 5.017p
Rs 1 N3 0.63
L1 N3 2 8.2u
.ends 2512_74438324082_8.2u
*******
.subckt 2512_74438324100_10u 1 2
Rp 1 2 13964
Cp 1 2 4.941p
Rs 1 N3 0.68
L1 N3 2 10u
.ends 2512_74438324100_10u
*******
.subckt 3010_74438333022_2.2u 1 2
Rp 1 2 5803.67
Cp 1 2 4.724p
Rs 1 N3 0.15
L1 N3 2 2.2u
.ends 3010_74438333022_2.2u
*******
.subckt 3010_74438333033_3.3u 1 2
Rp 1 2 8309.33
Cp 1 2 5.35p
Rs 1 N3 0.232
L1 N3 2 3.3u
.ends 3010_74438333033_3.3u
*******
.subckt 3010_74438333047_4.7u 1 2
Rp 1 2 8564.33
Cp 1 2 5.279p
Rs 1 N3 0.356
L1 N3 2 4.7u
.ends 3010_74438333047_4.7u
*******
.subckt 3012_744383340033_0.33u 1 2
Rp 1 2 821.223
Cp 1 2 4.273p
Rs 1 N3 0.019
L1 N3 2 0.33u
.ends 3012_744383340033_0.33u
*******
.subckt 3012_744383340047_0.47u 1 2
Rp 1 2 1173.33
Cp 1 2 4.557p
Rs 1 N3 0.022
L1 N3 2 0.47u
.ends 3012_744383340047_0.47u
*******
.subckt 3012_744383340056_0.56u 1 2
Rp 1 2 1565
Cp 1 2 3.791p
Rs 1 N3 0.029
L1 N3 2 0.56u
.ends 3012_744383340056_0.56u
*******
.subckt 3012_744383340068_0.68u 1 2
Rp 1 2 1736.67
Cp 1 2 3.81p
Rs 1 N3 0.036
L1 N3 2 0.68u
.ends 3012_744383340068_0.68u
*******
.subckt 3012_74438334010_1u 1 2
Rp 1 2 2542.33
Cp 1 2 4.175p
Rs 1 N3 0.0421
L1 N3 2 1u
.ends 3012_74438334010_1u
*******
.subckt 3012_74438334012_1.2u 1 2
Rp 1 2 3020.5
Cp 1 2 4.955p
Rs 1 N3 0.055
L1 N3 2 1.2u
.ends 3012_74438334012_1.2u
*******
.subckt 3012_74438334015_1.5u 1 2
Rp 1 2 3865
Cp 1 2 4.749p
Rs 1 N3 0.08
L1 N3 2 1.5u
.ends 3012_74438334015_1.5u
*******
.subckt 3012_74438334022_2.2u 1 2
Rp 1 2 4887.67
Cp 1 2 5.102p
Rs 1 N3 0.1
L1 N3 2 2.2u
.ends 3012_74438334022_2.2u
*******
.subckt 3012_74438334033_3.3u 1 2
Rp 1 2 7481
Cp 1 2 6.07p
Rs 1 N3 0.1563
L1 N3 2 3.3u
.ends 3012_74438334033_3.3u
*******
.subckt 3012_74438334047_4.7u 1 2
Rp 1 2 9053.67
Cp 1 2 5.978p
Rs 1 N3 0.2677
L1 N3 2 4.7u
.ends 3012_74438334047_4.7u
*******
.subckt 3012_74438334056_5.6u 1 2
Rp 1 2 10141
Cp 1 2 5.743p
Rs 1 N3 0.3383
L1 N3 2 5.6u
.ends 3012_74438334056_5.6u
*******
.subckt 3012_74438334068_6.8u 1 2
Rp 1 2 11556.3
Cp 1 2 6.099p
Rs 1 N3 0.3682
L1 N3 2 6.8u
.ends 3012_74438334068_6.8u
*******
.subckt 3015_744383350047_0.47u 1 2
Rp 1 2 1058.19
Cp 1 2 4.854p
Rs 1 N3 0.02
L1 N3 2 0.47u
.ends 3015_744383350047_0.47u
*******
.subckt 3015_744383350068_0.68u 1 2
Rp 1 2 1639.16
Cp 1 2 4.395p
Rs 1 N3 0.025
L1 N3 2 0.68u
.ends 3015_744383350068_0.68u
*******
.subckt 3015_744383350082_0.82u 1 2
Rp 1 2 2232.88
Cp 1 2 4.568p
Rs 1 N3 0.03
L1 N3 2 0.82u
.ends 3015_744383350082_0.82u
*******
.subckt 3015_74438335010_1u 1 2
Rp 1 2 2039.33
Cp 1 2 4.956p
Rs 1 N3 0.039
L1 N3 2 1u
.ends 3015_74438335010_1u
*******
.subckt 3015_74438335022_2.2u 1 2
Rp 1 2 4443
Cp 1 2 5.693p
Rs 1 N3 0.094
L1 N3 2 2.2u
.ends 3015_74438335022_2.2u
*******
.subckt 3015_74438335033_3.3u 1 2
Rp 1 2 6061
Cp 1 2 6.484p
Rs 1 N3 0.114
L1 N3 2 3.3u
.ends 3015_74438335033_3.3u
*******
.subckt 3015_74438335047_4.7u 1 2
Rp 1 2 8005.67
Cp 1 2 6.655p
Rs 1 N3 0.141
L1 N3 2 4.7u
.ends 3015_74438335047_4.7u
*******
.subckt 3015_74438335068_6.8u 1 2
Rp 1 2 10791.7
Cp 1 2 7.023p
Rs 1 N3 0.25
L1 N3 2 6.8u
.ends 3015_74438335068_6.8u
*******
.subckt 3015_74438335100_10u 1 2
Rp 1 2 15109.7
Cp 1 2 6.184p
Rs 1 N3 0.446
L1 N3 2 10u
.ends 3015_74438335100_10u
*******
.subckt 3015_74438335150_15u 1 2
Rp 1 2 21284.7
Cp 1 2 5.87p
Rs 1 N3 0.72
L1 N3 2 15u
.ends 3015_74438335150_15u
*******
.subckt 3015_74438335220_22u 1 2
Rp 1 2 29029
Cp 1 2 6.343p
Rs 1 N3 0.94
L1 N3 2 22u
.ends 3015_74438335220_22u
*******
.subckt 3015_74438335330_33u 1 2
Rp 1 2 33248.3
Cp 1 2 6.993p
Rs 1 N3 1.21
L1 N3 2 33u
.ends 3015_74438335330_33u
*******
.subckt 3015_74438335470_47u 1 2
Rp 1 2 42066.7
Cp 1 2 7.598p
Rs 1 N3 2.09
L1 N3 2 47u
.ends 3015_74438335470_47u
*******
.subckt 3020_744383360033_0.33u 1 2
Rp 1 2 725.018
Cp 1 2 4.214p
Rs 1 N3 0.014
L1 N3 2 0.33u
.ends 3020_744383360033_0.33u
*******
.subckt 3020_744383360047_0.47u 1 2
Rp 1 2 1054.62
Cp 1 2 5.383p
Rs 1 N3 0.018
L1 N3 2 0.47u
.ends 3020_744383360047_0.47u
*******
.subckt 3020_744383360068_0.68u 1 2
Rp 1 2 1402.49
Cp 1 2 5.601p
Rs 1 N3 0.022
L1 N3 2 0.68u
.ends 3020_744383360068_0.68u
*******
.subckt 3020_74438336010_1u 1 2
Rp 1 2 1905.12
Cp 1 2 5.88p
Rs 1 N3 0.026
L1 N3 2 1u
.ends 3020_74438336010_1u
*******
.subckt 3020_74438336012_1.2u 1 2
Rp 1 2 2327.01
Cp 1 2 6.401p
Rs 1 N3 0.03
L1 N3 2 1.2u
.ends 3020_74438336012_1.2u
*******
.subckt 3020_74438336015_1.5u 1 2
Rp 1 2 2879.29
Cp 1 2 6.55p
Rs 1 N3 0.033
L1 N3 2 1.5u
.ends 3020_74438336015_1.5u
*******
.subckt 3020_74438336022_2.2u 1 2
Rp 1 2 4907.59
Cp 1 2 6.442p
Rs 1 N3 0.067
L1 N3 2 2.2u
.ends 3020_74438336022_2.2u
*******
.subckt 3020_74438336033_3.3u 1 2
Rp 1 2 6097.33
Cp 1 2 5.747p
Rs 1 N3 0.099
L1 N3 2 3.3u
.ends 3020_74438336033_3.3u
*******
.subckt 3020_74438336047_4.7u 1 2
Rp 1 2 8959.52
Cp 1 2 6.446p
Rs 1 N3 0.137
L1 N3 2 4.7u
.ends 3020_74438336047_4.7u
*******
.subckt 3020_74438336068_6.8u 1 2
Rp 1 2 9175.28
Cp 1 2 8.2p
Rs 1 N3 0.168
L1 N3 2 6.8u
.ends 3020_74438336068_6.8u
*******
.subckt 3020_74438336100_10u 1 2
Rp 1 2 14215.5
Cp 1 2 8.016p
Rs 1 N3 0.28
L1 N3 2 10u
.ends 3020_74438336100_10u
*******
.subckt 4020_744383560033_0.33u 1 2
Rp 1 2 710.001
Cp 1 2 5.659p
Rs 1 N3 0.006
L1 N3 2 0.33u
.ends 4020_744383560033_0.33u
*******
.subckt 4020_744383560056_0.56u 1 2
Rp 1 2 1083.91
Cp 1 2 6.916p
Rs 1 N3 0.007
L1 N3 2 0.56u
.ends 4020_744383560056_0.56u
*******
.subckt 4020_744383560068_0.68u 1 2
Rp 1 2 1345.97
Cp 1 2 7.145p
Rs 1 N3 0.0075
L1 N3 2 0.68u
.ends 4020_744383560068_0.68u
*******
.subckt 4020_74438356010_1u 1 2
Rp 1 2 2216.2
Cp 1 2 8.117p
Rs 1 N3 0.012
L1 N3 2 1u
.ends 4020_74438356010_1u
*******
.subckt 4020_74438356012_1.2u 1 2
Rp 1 2 2461.73
Cp 1 2 7.588p
Rs 1 N3 0.015
L1 N3 2 1.2u
.ends 4020_74438356012_1.2u
*******
.subckt 4020_74438356015_1.5u 1 2
Rp 1 2 2825.87
Cp 1 2 8.139p
Rs 1 N3 0.016
L1 N3 2 1.5u
.ends 4020_74438356015_1.5u
*******
.subckt 4020_74438356018_1.8u 1 2
Rp 1 2 3380.92
Cp 1 2 9.048p
Rs 1 N3 0.0245
L1 N3 2 1.8u
.ends 4020_74438356018_1.8u
*******
.subckt 4020_74438356022_2.2u 1 2
Rp 1 2 4123.86
Cp 1 2 9.715p
Rs 1 N3 0.029
L1 N3 2 2.2u
.ends 4020_74438356022_2.2u
*******
.subckt 4020_74438356033_3.3u 1 2
Rp 1 2 5467.85
Cp 1 2 12.336p
Rs 1 N3 0.0399
L1 N3 2 3.3u
.ends 4020_74438356033_3.3u
*******
.subckt 4020_74438356047_4.7u 1 2
Rp 1 2 7737.27
Cp 1 2 11.154p
Rs 1 N3 0.063
L1 N3 2 4.7u
.ends 4020_74438356047_4.7u
*******
.subckt 4020_74438356056_5.6u 1 2
Rp 1 2 8142.5
Cp 1 2 11.566p
Rs 1 N3 0.068
L1 N3 2 5.6u
.ends 4020_74438356056_5.6u
*******
.subckt 4020_74438356150_15u 1 2
Rp 1 2 14200
Cp 1 2 9.62p
Rs 1 N3 0.2
L1 N3 2 15u
.ends 4020_74438356150_15u
*******
.subckt 4020_74438356220_22u 1 2
Rp 1 2 22800
Cp 1 2 10.4p
Rs 1 N3 0.25
L1 N3 2 22u
.ends 4020_74438356220_22u
*******
.subckt 4030_74438357010_1u 1 2
Rp 1 2 2195
Cp 1 2 7.039p
Rs 1 N3 0.0116
L1 N3 2 1u
.ends 4030_74438357010_1u
*******
.subckt 4030_74438357012_1.2u 1 2
Rp 1 2 2666
Cp 1 2 7.979p
Rs 1 N3 0.0134
L1 N3 2 1.2u
.ends 4030_74438357012_1.2u
*******
.subckt 4030_74438357015_1.5u 1 2
Rp 1 2 3039
Cp 1 2 7.848p
Rs 1 N3 0.0171
L1 N3 2 1.5u
.ends 4030_74438357015_1.5u
*******
.subckt 4030_74438357018_1.8u 1 2
Rp 1 2 3649
Cp 1 2 8.081p
Rs 1 N3 0.018
L1 N3 2 1.8u
.ends 4030_74438357018_1.8u
*******
.subckt 4030_74438357022_2.2u 1 2
Rp 1 2 4556
Cp 1 2 9.49p
Rs 1 N3 0.022
L1 N3 2 2.2u
.ends 4030_74438357022_2.2u
*******
.subckt 4030_74438357047_4.7u 1 2
Rp 1 2 8253
Cp 1 2 10.012p
Rs 1 N3 0.0399
L1 N3 2 4.7u
.ends 4030_74438357047_4.7u
*******
.subckt 4030_74438357056_5.6u 1 2
Rp 1 2 9277
Cp 1 2 11.154p
Rs 1 N3 0.0465
L1 N3 2 5.6u
.ends 4030_74438357056_5.6u
*******
.subckt 4030_74438357068_6.8u 1 2
Rp 1 2 11078
Cp 1 2 10p
Rs 1 N3 0.0694
L1 N3 2 6.8u
.ends 4030_74438357068_6.8u
*******
.subckt 4030_74438357082_8.2u 1 2
Rp 1 2 12230
Cp 1 2 11.388p
Rs 1 N3 0.081
L1 N3 2 8.2u
.ends 4030_74438357082_8.2u
*******
.subckt 4030_74438357100_10u 1 2
Rp 1 2 13721
Cp 1 2 11.841p
Rs 1 N3 0.1008
L1 N3 2 10u
.ends 4030_74438357100_10u
*******
