**************************************************
* Manufacturer:       Wurth Elektronik 
* Kinds:     Multi-Tum Ratio Coupled Inductor
* Matchcode:          WE-MTCI
* Library Type:       Ltspice
* Version:        rev18a
* Created/modified by:    Fredo       
* Date and Time   :       10/15/2018
* Team:           eiSos EDA Service  
* Contact:        libraries@we-online.com
**************************************************
.subckt  5030_744889015100_10u  1  2  3  4  PARAMS:
+  Cww=9.5p
+  Rp1=9168
+  Cp1=9.155p
+  Lp1=11.282u
+  Rp2=20762
+  Cp2=5.515p
+  Lp2=22.696u
+  RDC1=0.349
+  RDC2=0.408
+  K=0.992191737742481
C_C1  2  1    {Cww/2}
R_R50  2  1  5000g
C_C2  3  4    {Cww/2}
C_C5  3  2    {Cp1}
R_R1  3  N05454    {RDC1}
R_R2  3  2    {Rp1}
L_L1  N05454  2    {Lp1}
L_L2  N05750  1    {Lp2}
C_C6  4  1    {Cp2}
R_R3  4  1    {Rp2}
R_R4  4  N05750    {RDC2}
Kn_K1  L_L1  L_L2      {K}
.ends
******
.subckt  5030_744889020100_10u  1  2  3  4  PARAMS:
+  Cww=10.2p
+  Rp1=19692
+  Cp1=8.558p
+  Lp1=26.813u
+  Rp2=19477
+  Cp2=8.547p
+  Lp2=26.849u
+  RDC1=0.358
+  RDC2=0.552
+  K=0.993856126408647
C_C1  2  1    {Cww/2}
R_R50  2  1  5000g
C_C2  3  4    {Cww/2}
C_C5  3  2    {Cp1}
R_R1  3  N05454    {RDC1}
R_R2  3  2    {Rp1}
L_L1  N05454  2    {Lp1}
L_L2  N05750  1    {Lp2}
C_C6  4  1    {Cp2}
R_R3  4  1    {Rp2}
R_R4  4  N05750    {RDC2}
Kn_K1  L_L1  L_L2      {K}
.ends
******
.subckt  5030_744889030100_10u  1  2  3  4  PARAMS:
+  Cww=13.6p
+  Rp1=14271
+  Cp1=8.324p
+  Lp1=50.074u
+  Rp2=63698
+  Cp2=5.312p
+  Lp2=95.913u
+  RDC1=0.363
+  RDC2=0.846
+  K=0.996828303504002
C_C1  2  1    {Cww/2}
R_R50  2  1  5000g
C_C2  3  4    {Cww/2}
C_C5  3  2    {Cp1}
R_R1  3  N05454    {RDC1}
R_R2  3  2    {Rp1}
L_L1  N05454  2    {Lp1}
L_L2  N05750  1    {Lp2}
C_C6  4  1    {Cp2}
R_R3  4  1    {Rp2}
R_R4  4  N05750    {RDC2}
Kn_K1  L_L1  L_L2      {K}
.ends
******
.subckt  5030_744889015220_22u  1  2  3  4  PARAMS:
+  Cww=12.1p
+  Rp1=6032
+  Cp1=13.907p
+  Lp1=1.126u
+  Rp2=31099
+  Cp2=3.908p
+  Lp2=39.014u
+  RDC1=0.662
+  RDC2=0.874
+  K=0.993615985817825
C_C1  2  1    {Cww/2}
R_R50  2  1  5000g
C_C2  3  4    {Cww/2}
C_C5  3  2    {Cp1}
R_R1  3  N05454    {RDC1}
R_R2  3  2    {Rp1}
L_L1  N05454  2    {Lp1}
L_L2  N05750  1    {Lp2}
C_C6  4  1    {Cp2}
R_R3  4  1    {Rp2}
R_R4  4  N05750    {RDC2}
Kn_K1  L_L1  L_L2      {K}
.ends
******
.subckt  5030_744889020220_22u  1  2  3  4  PARAMS:
+  Cww=13.2p
+  Rp1=16195
+  Cp1=17.947p
+  Lp1=28.388u
+  Rp2=34255
+  Cp2=5.509p
+  Lp2=92.486u
+  RDC1=0.712
+  RDC2=1.208
+  K=0.99572951785476
C_C1  2  1    {Cww/2}
R_R50  2  1  5000g
C_C2  3  4    {Cww/2}
C_C5  3  2    {Cp1}
R_R1  3  N05454    {RDC1}
R_R2  3  2    {Rp1}
L_L1  N05454  2    {Lp1}
L_L2  N05750  1    {Lp2}
C_C6  4  1    {Cp2}
R_R3  4  1    {Rp2}
R_R4  4  N05750    {RDC2}
Kn_K1  L_L1  L_L2      {K}
.ends
******
.subckt  5030_744889030220_22u  1  2  3  4  PARAMS:
+  Cww=14.9p
+  Rp1=16972
+  Cp1=15.439p
+  Lp1=41.252u
+  Rp2=55012
+  Cp2=4.466p
+  Lp2=142.616u
+  RDC1=0.732
+  RDC2=1.872
+  K=0.997851226740274
C_C1  2  1    {Cww/2}
R_R50  2  1  5000g
C_C2  3  4    {Cww/2}
C_C5  3  2    {Cp1}
R_R1  3  N05454    {RDC1}
R_R2  3  2    {Rp1}
L_L1  N05454  2    {Lp1}
L_L2  N05750  1    {Lp2}
C_C6  4  1    {Cp2}
R_R3  4  1    {Rp2}
R_R4  4  N05750    {RDC2}
Kn_K1  L_L1  L_L2      {K}
.ends
******
.subckt  5030_744889015330_33u  1  2  3  4  PARAMS:
+  Cww=17.9p
+  Rp1=5042
+  Cp1=29.032p
+  Lp1=14.327u
+  Rp2=57172
+  Cp2=4.248p
+  Lp2=98.126u
+  RDC1=1.338
+  RDC2=1.782
+  K=0.995342690085717
C_C1  2  1    {Cww/2}
R_R50  2  1  5000g
C_C2  3  4    {Cww/2}
C_C5  3  2    {Cp1}
R_R1  3  N05454    {RDC1}
R_R2  3  2    {Rp1}
L_L1  N05454  2    {Lp1}
L_L2  N05750  1    {Lp2}
C_C6  4  1    {Cp2}
R_R3  4  1    {Rp2}
R_R4  4  N05750    {RDC2}
Kn_K1  L_L1  L_L2      {K}
.ends
******
.subckt  5030_744889020330_33u  1  2  3  4  PARAMS:
+  Cww=18.9p
+  Rp1=11548
+  Cp1=29.125p
+  Lp1=32.43u
+  Rp2=127847
+  Cp2=4.581p
+  Lp2=206.15u
+  RDC1=1.383
+  RDC2=2.418
+  K=0.996775103050134
C_C1  2  1    {Cww/2}
R_R50  2  1  5000g
C_C2  3  4    {Cww/2}
C_C5  3  2    {Cp1}
R_R1  3  N05454    {RDC1}
R_R2  3  2    {Rp1}
L_L1  N05454  2    {Lp1}
L_L2  N05750  1    {Lp2}
C_C6  4  1    {Cp2}
R_R3  4  1    {Rp2}
R_R4  4  N05750    {RDC2}
Kn_K1  L_L1  L_L2      {K}
.ends
******
.subckt  5030_744889030330_33u  1  2  3  4  PARAMS:
+  Cww=21.7p
+  Rp1=21944
+  Cp1=27.563p
+  Lp1=62.829u
+  Rp2=183715
+  Cp2=5.312p
+  Lp2=325.995u
+  RDC1=1.466
+  RDC2=3.758
+  K=0.998399392428374
C_C1  2  1    {Cww/2}
R_R50  2  1  5000g
C_C2  3  4    {Cww/2}
C_C5  3  2    {Cp1}
R_R1  3  N05454    {RDC1}
R_R2  3  2    {Rp1}
L_L1  N05454  2    {Lp1}
L_L2  N05750  1    {Lp2}
C_C6  4  1    {Cp2}
R_R3  4  1    {Rp2}
R_R4  4  N05750    {RDC2}
Kn_K1  L_L1  L_L2      {K}
.ends
******
