**************************************************
* Manufacturer: 		Wurth Elektronik
* Kinds:			Single Coil Power Inductor
* Matchcode: 		WE-MAIA
* Library Type:		LTspice
* Version: 		rev18a
* Created/modified by:	Fredo Huang
* Date and Time   :		2018-01-03
* Team: 			eiSos EDA Service
* Contact: 		libraries@we-online.com
**************************************************
.subckt 2506_78438321010_1u 1 2
Rp 1 2 2580.27
Cp 1 2 2.894p
Rs 1 N3 0.163
L1 N3 2 1u
.ends 2506_78438321010_1u
*******
.subckt 2506_784383210047_0.47u 1 2
Rp 1 2 1358.8
Cp 1 2 2.201p
Rs 1 N3 0.076
L1 N3 2 0.47u
.ends 2506_784383210047_0.47u
*******
.subckt 2508_78438322010_1u 1 2
Rp 1 2 2287
Cp 1 2 2.785p
Rs 1 N3 0.107
L1 N3 2 1u
.ends 2508_78438322010_1u
*******
.subckt 2508_78438322022_2.2u 1 2
Rp 1 2 5454.6
Cp 1 2 3.211p
Rs 1 N3 0.252
L1 N3 2 2.2u
.ends 2508_78438322022_2.2u
*******
.subckt 2508_784383220047_0.47u 1 2
Rp 1 2 1328.67
Cp 1 2 2.363p
Rs 1 N3 0.07
L1 N3 2 0.47u
.ends 2508_784383220047_0.47u
*******
.subckt 2510_78438323010_1u 1 2
Rp 1 2 2155.33
Cp 1 2 3.992p
Rs 1 N3 0.063
L1 N3 2 1u
.ends 2510_78438323010_1u
*******
.subckt 2510_78438323012_1.2u 1 2
Rp 1 2 2888.67
Cp 1 2 3.384p
Rs 1 N3 0.082
L1 N3 2 1.2u
.ends 2510_78438323012_1.2u
*******
.subckt 2510_78438323015_1.5u 1 2
Rp 1 2 3356.67
Cp 1 2 3.701p
Rs 1 N3 0.092
L1 N3 2 1.5u
.ends 2510_78438323015_1.5u
*******
.subckt 2510_78438323022_2.2u 1 2
Rp 1 2 2863
Cp 1 2 2.634p
Rs 1 N3 0.147
L1 N3 2 2.2u
.ends 2510_78438323022_2.2u
*******
.subckt 2510_78438323033_3.3u 1 2
Rp 1 2 5818.67
Cp 1 2 3.66p
Rs 1 N3 0.22
L1 N3 2 3.3u
.ends 2510_78438323033_3.3u
*******
.subckt 2510_78438323047_4.7u 1 2
Rp 1 2 8723.67
Cp 1 2 4.556p
Rs 1 N3 0.338
L1 N3 2 4.7u
.ends 2510_78438323047_4.7u
*******
.subckt 2510_78438323068_6.8u 1 2
Rp 1 2 12938.3
Cp 1 2 3.909p
Rs 1 N3 0.563
L1 N3 2 6.8u
.ends 2510_78438323068_6.8u
*******
.subckt 2510_78438323082_8.2u 1 2
Rp 1 2 14641.6
Cp 1 2 4.429p
Rs 1 N3 0.646
L1 N3 2 8.2u
.ends 2510_78438323082_8.2u
*******
.subckt 2510_78438323100_10u 1 2
Rp 1 2 17001.7
Cp 1 2 4.388p
Rs 1 N3 0.733
L1 N3 2 10u
.ends 2510_78438323100_10u
*******
.subckt 2510_784383230033_0.33u 1 2
Rp 1 2 759.73
Cp 1 2 2.788p
Rs 1 N3 0.029
L1 N3 2 0.33u
.ends 2510_784383230033_0.33u
*******
.subckt 2510_784383230047_0.47u 1 2
Rp 1 2 807.55
Cp 1 2 2.235p
Rs 1 N3 0.037
L1 N3 2 0.47u
.ends 2510_784383230047_0.47u
*******
.subckt 2510_784383230068_0.68u 1 2
Rp 1 2 1052.9
Cp 1 2 2.576p
Rs 1 N3 0.046
L1 N3 2 0.68u
.ends 2510_784383230068_0.68u
*******
.subckt 2510_784383230082_0.82u 1 2
Rp 1 2 1712.77
Cp 1 2 3.184p
Rs 1 N3 0.053
L1 N3 2 0.82u
.ends 2510_784383230082_0.82u
*******
.subckt 3010_78438333022_2.2u 1 2
Rp 1 2 5803.67
Cp 1 2 4.724p
Rs 1 N3 0.15
L1 N3 2 2.2u
.ends 3010_78438333022_2.2u
*******
.subckt 3010_78438333033_3.3u 1 2
Rp 1 2 8309.33
Cp 1 2 5.35p
Rs 1 N3 0.232
L1 N3 2 3.3u
.ends 3010_78438333033_3.3u
*******
.subckt 3010_78438333047_4.7u 1 2
Rp 1 2 8564.33
Cp 1 2 5.279p
Rs 1 N3 0.356
L1 N3 2 4.7u
.ends 3010_78438333047_4.7u
*******
.subckt 3012_78438334010_1u 1 2
Rp 1 2 2542.33
Cp 1 2 4.175p
Rs 1 N3 0.0421
L1 N3 2 1u
.ends 3012_78438334010_1u
*******
.subckt 3012_78438334012_1.2u 1 2
Rp 1 2 3020.5
Cp 1 2 4.955p
Rs 1 N3 0.055
L1 N3 2 1.2u
.ends 3012_78438334012_1.2u
*******
.subckt 3012_78438334015_1.5u 1 2
Rp 1 2 3865
Cp 1 2 4.749p
Rs 1 N3 0.08
L1 N3 2 1.5u
.ends 3012_78438334015_1.5u
*******
.subckt 3012_78438334022_2.2u 1 2
Rp 1 2 4887.67
Cp 1 2 5.102p
Rs 1 N3 0.1
L1 N3 2 2.2u
.ends 3012_78438334022_2.2u
*******
.subckt 3012_78438334033_3.3u 1 2
Rp 1 2 7481
Cp 1 2 6.07p
Rs 1 N3 0.1563
L1 N3 2 3.3u
.ends 3012_78438334033_3.3u
*******
.subckt 3012_78438334047_4.7u 1 2
Rp 1 2 9053.67
Cp 1 2 5.978p
Rs 1 N3 0.2677
L1 N3 2 4.7u
.ends 3012_78438334047_4.7u
*******
.subckt 3012_78438334056_5.6u 1 2
Rp 1 2 10141
Cp 1 2 5.743p
Rs 1 N3 0.3383
L1 N3 2 5.6u
.ends 3012_78438334056_5.6u
*******
.subckt 3012_78438334068_6.8u 1 2
Rp 1 2 11556.3
Cp 1 2 6.099p
Rs 1 N3 0.3682
L1 N3 2 6.8u
.ends 3012_78438334068_6.8u
*******
.subckt 3012_784383340033_0.33u 1 2
Rp 1 2 821.223
Cp 1 2 4.273p
Rs 1 N3 0.019
L1 N3 2 0.33u
.ends 3012_784383340033_0.33u
*******
.subckt 3012_784383340047_0.47u 1 2
Rp 1 2 1173.33
Cp 1 2 4.557p
Rs 1 N3 0.022
L1 N3 2 0.47u
.ends 3012_784383340047_0.47u
*******
.subckt 3012_784383340056_0.56u 1 2
Rp 1 2 1565
Cp 1 2 3.791p
Rs 1 N3 0.029
L1 N3 2 0.56u
.ends 3012_784383340056_0.56u
*******
.subckt 3012_784383340068_0.68u 1 2
Rp 1 2 1736.67
Cp 1 2 3.81p
Rs 1 N3 0.036
L1 N3 2 0.68u
.ends 3012_784383340068_0.68u
*******
.subckt 3015_78438335010_1u 1 2
Rp 1 2 2039.33
Cp 1 2 4.956p
Rs 1 N3 0.039
L1 N3 2 1u
.ends 3015_78438335010_1u
*******
.subckt 3015_78438335022_2.2u 1 2
Rp 1 2 4443
Cp 1 2 5.693p
Rs 1 N3 0.094
L1 N3 2 2.2u
.ends 3015_78438335022_2.2u
*******
.subckt 3015_78438335033_3.3u 1 2
Rp 1 2 6061
Cp 1 2 6.484p
Rs 1 N3 0.114
L1 N3 2 3.3u
.ends 3015_78438335033_3.3u
*******
.subckt 3015_78438335047_4.7u 1 2
Rp 1 2 8005.67
Cp 1 2 6.655p
Rs 1 N3 0.141
L1 N3 2 4.7u
.ends 3015_78438335047_4.7u
*******
.subckt 3015_78438335068_6.8u 1 2
Rp 1 2 10791.7
Cp 1 2 7.023p
Rs 1 N3 0.25
L1 N3 2 6.8u
.ends 3015_78438335068_6.8u
*******
.subckt 3015_78438335100_10u 1 2
Rp 1 2 15109.7
Cp 1 2 6.184p
Rs 1 N3 0.446
L1 N3 2 10u
.ends 3015_78438335100_10u
*******
.subckt 3015_78438335150_15u 1 2
Rp 1 2 21284.7
Cp 1 2 5.87p
Rs 1 N3 0.72
L1 N3 2 15u
.ends 3015_78438335150_15u
*******
.subckt 3015_78438335220_22u 1 2
Rp 1 2 29029
Cp 1 2 6.343p
Rs 1 N3 0.94
L1 N3 2 22u
.ends 3015_78438335220_22u
*******
.subckt 3015_78438335330_33u 1 2
Rp 1 2 33248.3
Cp 1 2 6.993p
Rs 1 N3 1.21
L1 N3 2 33u
.ends 3015_78438335330_33u
*******
.subckt 3015_78438335470_47u 1 2
Rp 1 2 42066.7
Cp 1 2 7.598p
Rs 1 N3 2.09
L1 N3 2 47u
.ends 3015_78438335470_47u
*******
.subckt 3015_784383350047_0.47u 1 2
Rp 1 2 1058.19
Cp 1 2 4.854p
Rs 1 N3 0.02
L1 N3 2 0.47u
.ends 3015_784383350047_0.47u
*******
.subckt 3015_784383350068_0.68u 1 2
Rp 1 2 1639.16
Cp 1 2 4.395p
Rs 1 N3 0.025
L1 N3 2 0.68u
.ends 3015_784383350068_0.68u
*******
.subckt 3015_784383350082_0.82u 1 2
Rp 1 2 2232.88
Cp 1 2 4.568p
Rs 1 N3 0.03
L1 N3 2 0.82u
.ends 3015_784383350082_0.82u
*******
.subckt 4030_78438357010_1u 1 2
Rp 1 2 2195
Cp 1 2 7.039p
Rs 1 N3 0.0116
L1 N3 2 1u
.ends 4030_78438357010_1u
*******
.subckt 4030_78438357012_1.2u 1 2
Rp 1 2 2666
Cp 1 2 7.979p
Rs 1 N3 0.0134
L1 N3 2 1.2u
.ends 4030_78438357012_1.2u
*******
.subckt 4030_78438357015_1.5u 1 2
Rp 1 2 3039
Cp 1 2 7.848p
Rs 1 N3 0.0171
L1 N3 2 1.5u
.ends 4030_78438357015_1.5u
*******
.subckt 4030_78438357018_1.8u 1 2
Rp 1 2 3649
Cp 1 2 8.081p
Rs 1 N3 0.018
L1 N3 2 1.8u
.ends 4030_78438357018_1.8u
*******
.subckt 4030_78438357022_2.2u 1 2
Rp 1 2 4556
Cp 1 2 9.49p
Rs 1 N3 0.022
L1 N3 2 2.2u
.ends 4030_78438357022_2.2u
*******
.subckt 4030_78438357047_4.7u 1 2
Rp 1 2 8253
Cp 1 2 10.012p
Rs 1 N3 0.0399
L1 N3 2 4.7u
.ends 4030_78438357047_4.7u
*******
.subckt 4030_78438357056_5.6u 1 2
Rp 1 2 9277
Cp 1 2 11.154p
Rs 1 N3 0.0465
L1 N3 2 5.6u
.ends 4030_78438357056_5.6u
*******
.subckt 4030_78438357068_6.8u 1 2
Rp 1 2 11078
Cp 1 2 10p
Rs 1 N3 0.0694
L1 N3 2 6.8u
.ends 4030_78438357068_6.8u
*******
.subckt 4030_78438357082_8.2u 1 2
Rp 1 2 12230
Cp 1 2 11.388p
Rs 1 N3 0.081
L1 N3 2 8.2u
.ends 4030_78438357082_8.2u
*******
.subckt 4030_78438357100_10u 1 2
Rp 1 2 13721
Cp 1 2 11.841p
Rs 1 N3 0.1008
L1 N3 2 10u
.ends 4030_78438357100_10u
*******
