*********************************************************
* Manufacturer: 		Wurth Elektronik
* Kinds:			SMD Shielded Power Inductor
* Matchcode: 		WE-PDF
* Library Type:		LTspice
* Version: 		rev18a
* Created/modified by:	Fredo Huang
* Date and Time   :		2018-01-03
* Team: 			eiSos EDA Service
* Contact: 		libraries@we-online.com
*********************************************************
.subckt 1045_7447797022_0.22u 1 2
Rp 1 2 581.923
Cp 1 2 1.151p
Rs 1 N3 0.0029
L1 N3 2 0.22u
.ends 1045_7447797022_0.22u
*******
.subckt 1045_7447797050_0.5u 1 2
Rp 1 2 1202.15
Cp 1 2 1.622p
Rs 1 N3 0.0043
L1 N3 2 0.5u
.ends 1045_7447797050_0.5u
*******
.subckt 1045_7447797110_1.1u 1 2
Rp 1 2 1785.91
Cp 1 2 2.034p
Rs 1 N3 0.0059
L1 N3 2 1.1u
.ends 1045_7447797110_1.1u
*******
.subckt 1045_7447797180_1.8u 1 2
Rp 1 2 2563.11
Cp 1 2 2.278p
Rs 1 N3 0.0074
L1 N3 2 1.8u
.ends 1045_7447797180_1.8u
*******
.subckt 1045_7447797250_2.5u 1 2
Rp 1 2 3115.11
Cp 1 2 3.072p
Rs 1 N3 0.009
L1 N3 2 2.5u
.ends 1045_7447797250_2.5u
*******
.subckt 1045_7447797360_3.6u 1 2
Rp 1 2 4575.69
Cp 1 2 2.792p
Rs 1 N3 0.0108
L1 N3 2 3.6u
.ends 1045_7447797360_3.6u
*******
.subckt 1045_7447797470_4.7u 1 2
Rp 1 2 5111.45
Cp 1 2 2.918p
Rs 1 N3 0.0173
L1 N3 2 4.7u
.ends 1045_7447797470_4.7u
*******
.subckt 1045_7447797620_6.2u 1 2
Rp 1 2 5535.3
Cp 1 2 3.51p
Rs 1 N3 0.0198
L1 N3 2 6.2u
.ends 1045_7447797620_6.2u
*******
.subckt 1045_7447797820_8.2u 1 2
Rp 1 2 8027.24
Cp 1 2 4.205p
Rs 1 N3 0.0253
L1 N3 2 8.2u
.ends 1045_7447797820_8.2u
*******
.subckt 1064_7447798022_0.22u 1 2
Rp 1 2 467.817
Cp 1 2 1.086p
Rs 1 N3 0.0016
L1 N3 2 0.22u
.ends 1064_7447798022_0.22u
*******
.subckt 1064_7447798050_0.5u 1 2
Rp 1 2 952.427
Cp 1 2 1.904p
Rs 1 N3 0.0022
L1 N3 2 0.5u
.ends 1064_7447798050_0.5u
*******
.subckt 1064_7447798110_1.1u 1 2
Rp 1 2 1471.53
Cp 1 2 2.705p
Rs 1 N3 0.003
L1 N3 2 1.1u
.ends 1064_7447798110_1.1u
*******
.subckt 1064_7447798111_11u 1 2
Rp 1 2 7800.06
Cp 1 2 4.534p
Rs 1 N3 0.014
L1 N3 2 11u
.ends 1064_7447798111_11u
*******
.subckt 1064_7447798131_13u 1 2
Rp 1 2 10836.2
Cp 1 2 3.619p
Rs 1 N3 0.0199
L1 N3 2 13u
.ends 1064_7447798131_13u
*******
.subckt 1064_7447798151_15u 1 2
Rp 1 2 12395.5
Cp 1 2 4.153p
Rs 1 N3 0.0218
L1 N3 2 15u
.ends 1064_7447798151_15u
*******
.subckt 1064_7447798180_1.8u 1 2
Rp 1 2 2052.09
Cp 1 2 3.267p
Rs 1 N3 0.0038
L1 N3 2 1.8u
.ends 1064_7447798180_1.8u
*******
.subckt 1064_7447798181_18u 1 2
Rp 1 2 11779.3
Cp 1 2 4.75p
Rs 1 N3 0.0305
L1 N3 2 18u
.ends 1064_7447798181_18u
*******
.subckt 1064_7447798221_22u 1 2
Rp 1 2 15375.2
Cp 1 2 4.195p
Rs 1 N3 0.033
L1 N3 2 22u
.ends 1064_7447798221_22u
*******
.subckt 1064_7447798241_24u 1 2
Rp 1 2 16138.8
Cp 1 2 4.611p
Rs 1 N3 0.035
L1 N3 2 24u
.ends 1064_7447798241_24u
*******
.subckt 1064_7447798250_2.5u 1 2
Rp 1 2 2701.15
Cp 1 2 3.651p
Rs 1 N3 0.0044
L1 N3 2 2.5u
.ends 1064_7447798250_2.5u
*******
.subckt 1064_7447798271_27u 1 2
Rp 1 2 16395.5
Cp 1 2 4.961p
Rs 1 N3 0.0376
L1 N3 2 27u
.ends 1064_7447798271_27u
*******
.subckt 1064_7447798360_3.6u 1 2
Rp 1 2 3525.88
Cp 1 2 4.037p
Rs 1 N3 0.00525
L1 N3 2 3.6u
.ends 1064_7447798360_3.6u
*******
.subckt 1064_7447798470_4.7u 1 2
Rp 1 2 5012.15
Cp 1 2 3.361p
Rs 1 N3 0.0074
L1 N3 2 4.7u
.ends 1064_7447798470_4.7u
*******
.subckt 1064_7447798620_6.2u 1 2
Rp 1 2 5110.8
Cp 1 2 4.415p
Rs 1 N3 0.0084
L1 N3 2 6.2u
.ends 1064_7447798620_6.2u
*******
.subckt 1064_7447798720_7.2u 1 2
Rp 1 2 6885.06
Cp 1 2 4.185p
Rs 1 N3 0.0113
L1 N3 2 7.2u
.ends 1064_7447798720_7.2u
*******
.subckt 1064_7447798910_9.1u 1 2
Rp 1 2 6874.78
Cp 1 2 4.37p
Rs 1 N3 0.0127
L1 N3 2 9.1u
.ends 1064_7447798910_9.1u
*******


