*******************************************************
* Manufacturer: 		Wurth Elektronik
* Kinds:			High Voltage SMD Power Inductor
* Matchcode: 		WE-PD HV
* Library Type:		LTspice
* Version: 		rev18a
* Created/modified by:	Fredo Huang
* Date and Time   :		2018-01-03
* Team: 			eiSos EDA Service
* Contact: 		libraries@we-online.com
*******************************************************
.subckt 1210_7687709221_220u 1 2
Rp 1 2 114020
Cp 1 2 16.853p
Rs 1 N3 0.3
L1 N3 2 220u
.ends 1210_7687709221_220u
*******
.subckt 1210_7687709471_470u 1 2
Rp 1 2 123970
Cp 1 2 16.473p
Rs 1 N3 0.68
L1 N3 2 470u
.ends 1210_7687709471_470u
*******
.subckt 1210_7687709681_680u 1 2
Rp 1 2 150160
Cp 1 2 18.018p
Rs 1 N3 0.95
L1 N3 2 680u
.ends 1210_7687709681_680u
*******
.subckt 1210_7687709102_1m 1 2
Rp 1 2 178860
Cp 1 2 18.364p
Rs 1 N3 1.2
L1 N3 2 1000u
.ends 1210_7687709102_1m
*******
.subckt 1210_7687709152_1.5m 1 2
Rp 1 2 249710
Cp 1 2 18.1p
Rs 1 N3 1.9
L1 N3 2 1500u
.ends 1210_7687709152_1.5m
*******
.subckt 1210_7687709222_2.2m 1 2
Rp 1 2 296540
Cp 1 2 21.622p
Rs 1 N3 3.1
L1 N3 2 2200u
.ends 1210_7687709222_2.2m
*******
.subckt 1210_7687709332_3.3m 1 2
Rp 1 2 363070
Cp 1 2 21.368p
Rs 1 N3 4.4
L1 N3 2 3300u
.ends 1210_7687709332_3.3m
*******
.subckt 1060_7687714221_220u 1 2
Rp 1 2 147680
Cp 1 2 7.579p
Rs 1 N3 0.57
L1 N3 2 220u
.ends 1060_7687714221_220u
*******
.subckt 1060_7687714471_470u 1 2
Rp 1 2 154450
Cp 1 2 7.312p
Rs 1 N3 1.25
L1 N3 2 470u
.ends 1060_7687714471_470u
*******
.subckt 1060_7687714681_680u 1 2
Rp 1 2 231060
Cp 1 2 8.162p
Rs 1 N3 1.9
L1 N3 2 680u
.ends 1060_7687714681_680u
*******
.subckt 1060_7687714102_1m 1 2
Rp 1 2 277000
Cp 1 2 8.632p
Rs 1 N3 2.7
L1 N3 2 1000u
.ends 1060_7687714102_1m
*******
.subckt 1060_7687714152_1.5m 1 2
Rp 1 2 308000
Cp 1 2 8.507p
Rs 1 N3 3.8
L1 N3 2 1500u
.ends 1060_7687714152_1.5m
*******
.subckt 1060_7687714222_2.2m 1 2
Rp 1 2 325360
Cp 1 2 8.885p
Rs 1 N3 5.5
L1 N3 2 2200u
.ends 1060_7687714222_2.2m
*******
.subckt 7345_7687779221_220u 1 2
Rp 1 2 169750
Cp 1 2 4.704p
Rs 1 N3 1.1
L1 N3 2 220u
.ends 7345_7687779221_220u
*******
.subckt 7345_7687779471_470u 1 2
Rp 1 2 195230
Cp 1 2 5.412p
Rs 1 N3 2.7
L1 N3 2 470u
.ends 7345_7687779471_470u
*******
.subckt 7345_7687779561_560u 1 2
Rp 1 2 237260
Cp 1 2 4.567p
Rs 1 N3 3
L1 N3 2 560u
.ends 7345_7687779561_560u
*******
.subckt 7345_7687779681_680u 1 2
Rp 1 2 255110
Cp 1 2 5.05p
Rs 1 N3 3.4
L1 N3 2 680u
.ends 7345_7687779681_680u
*******
.subckt 7345_7687779102_1m 1 2
Rp 1 2 375650
Cp 1 2 5.153p
Rs 1 N3 5.1
L1 N3 2 1000u
.ends 7345_7687779102_1m
*******
