**************************************************
* Manufacturer: 		Wurth Elektronik
* Kinds:			Single Coil Power Inductor
* Matchcode: 		WE-PDA
* Library Type:		LTspice
* Version: 		rev18a
* Created/modified by:	Fredo Huang
* Date and Time   :		2018-01-03
* Team: 			eiSos EDA Service
* Contact: 		libraries@we-online.com
**************************************************
.subckt 1210_7847709010_1u 1 2
Rp 1 2 2.295
Cp 1 2 1.388p
Rs 1 N3 0.008
L1 N3 2 1u
.ends 1210_7847709010_1u
*******
.subckt 1210_7847709022_2.2u 1 2
Rp 1 2 4.77
Cp 1 2 1.509p
Rs 1 N3 0.012
L1 N3 2 2.2u
.ends 1210_7847709022_2.2u
*******
.subckt 1210_7847709033_3.3u 1 2
Rp 1 2 6.338
Cp 1 2 1.612p
Rs 1 N3 0.014
L1 N3 2 3.3u
.ends 1210_7847709033_3.3u
*******
.subckt 1210_7847709047_4.7u 1 2
Rp 1 2 7.854
Cp 1 2 1.753p
Rs 1 N3 0.016
L1 N3 2 4.7u
.ends 1210_7847709047_4.7u
*******
.subckt 1210_7847709068_6.8u 1 2
Rp 1 2 11.244
Cp 1 2 2.776p
Rs 1 N3 0.02
L1 N3 2 6.8u
.ends 1210_7847709068_6.8u
*******
.subckt 1210_7847709100_10u 1 2
Rp 1 2 14.651
Cp 1 2 5.143p
Rs 1 N3 0.025
L1 N3 2 10u
.ends 1210_7847709100_10u
*******
.subckt 1210_7847709101_100u 1 2
Rp 1 2 101.541
Cp 1 2 12.707p
Rs 1 N3 0.1
L1 N3 2 100u
.ends 1210_7847709101_100u
*******
.subckt 1210_7847709102_1m 1 2
Rp 1 2 216.541
Cp 1 2 15.763p
Rs 1 N3 0.885
L1 N3 2 1000u
.ends 1210_7847709102_1m
*******
.subckt 1210_7847709220_22u 1 2
Rp 1 2 24.53
Cp 1 2 9.126p
Rs 1 N3 0.037
L1 N3 2 22u
.ends 1210_7847709220_22u
*******
.subckt 1210_7847709221_220u 1 2
Rp 1 2 105.097
Cp 1 2 16.032p
Rs 1 N3 0.205
L1 N3 2 220u
.ends 1210_7847709221_220u
*******
.subckt 1210_7847709470_47u 1 2
Rp 1 2 46.246
Cp 1 2 15.429p
Rs 1 N3 0.056
L1 N3 2 47u
.ends 1210_7847709470_47u
*******
.subckt 1210_7847709471_470u 1 2
Rp 1 2 109.395
Cp 1 2 17.578p
Rs 1 N3 0.41
L1 N3 2 470u
.ends 1210_7847709471_470u
*******
.subckt 1260_784771010_1u 1 2
Rp 1 2 2.433
Cp 1 2 1.348p
Rs 1 N3 0.007
L1 N3 2 1u
.ends 1260_784771010_1u
*******
.subckt 1260_784771022_2.2u 1 2
Rp 1 2 5.19
Cp 1 2 1.616p
Rs 1 N3 0.0105
L1 N3 2 2.2u
.ends 1260_784771022_2.2u
*******
.subckt 1260_784771033_3.3u 1 2
Rp 1 2 7.131
Cp 1 2 1.651p
Rs 1 N3 0.012
L1 N3 2 3.3u
.ends 1260_784771033_3.3u
*******
.subckt 1260_784771047_4.7u 1 2
Rp 1 2 9.042
Cp 1 2 2.437p
Rs 1 N3 0.0145
L1 N3 2 4.7u
.ends 1260_784771047_4.7u
*******
.subckt 1260_784771068_6.8u 1 2
Rp 1 2 12.514
Cp 1 2 4.856p
Rs 1 N3 0.018
L1 N3 2 6.8u
.ends 1260_784771068_6.8u
*******
.subckt 1260_784771082_8.2u 1 2
Rp 1 2 14.787
Cp 1 2 4.816p
Rs 1 N3 0.02
L1 N3 2 8.2u
.ends 1260_784771082_8.2u
*******
.subckt 1260_784771100_10u 1 2
Rp 1 2 17.178
Cp 1 2 5.297p
Rs 1 N3 0.022
L1 N3 2 10u
.ends 1260_784771100_10u
*******
.subckt 1260_784771101_100u 1 2
Rp 1 2 96.752
Cp 1 2 6.67p
Rs 1 N3 0.145
L1 N3 2 100u
.ends 1260_784771101_100u
*******
.subckt 1260_784771102_1m 1 2
Rp 1 2 184.406
Cp 1 2 8.993p
Rs 1 N3 1.42
L1 N3 2 1000u
.ends 1260_784771102_1m
*******
.subckt 1260_784771220_22u 1 2
Rp 1 2 31.803
Cp 1 2 5.836p
Rs 1 N3 0.0335
L1 N3 2 22u
.ends 1260_784771220_22u
*******
.subckt 1260_784771221_220u 1 2
Rp 1 2 105.002
Cp 1 2 8.886p
Rs 1 N3 0.29
L1 N3 2 220u
.ends 1260_784771221_220u
*******
.subckt 1260_784771470_47u 1 2
Rp 1 2 52.452
Cp 1 2 6.176p
Rs 1 N3 0.064
L1 N3 2 47u
.ends 1260_784771470_47u
*******
.subckt 1260_784771471_470u 1 2
Rp 1 2 251.375
Cp 1 2 6.566p
Rs 1 N3 0.588
L1 N3 2 470u
.ends 1260_784771471_470u
*******
.subckt 1260_784771330_33u 1 2
Rp 1 2 40.7
Cp 1 2 6.2p
Rs 1 N3 0.052
L1 N3 2 33u
.ends 1260_784771330_33u
*******
.subckt 1260_784771680_68u 1 2
Rp 1 2 65
Cp 1 2 5.9p
Rs 1 N3 0.115
L1 N3 2 68u
.ends 1260_784771680_68u
*******
.subckt 1260_784771331_330u 1 2
Rp 1 2 254
Cp 1 2 7.56p
Rs 1 N3 0.495
L1 N3 2 330u
.ends 1260_784771331_330u
*******
.subckt 1280_78477010_1u 1 2
Rp 1 2 2.669
Cp 1 2 1.295p
Rs 1 N3 0.0075
L1 N3 2 1u
.ends 1280_78477010_1u
*******
.subckt 1280_78477022_2.2u 1 2
Rp 1 2 5.813
Cp 1 2 1.522p
Rs 1 N3 0.012
L1 N3 2 2.2u
.ends 1280_78477022_2.2u
*******
.subckt 1280_78477033_3.3u 1 2
Rp 1 2 7.615
Cp 1 2 1.542p
Rs 1 N3 0.014
L1 N3 2 3.3u
.ends 1280_78477033_3.3u
*******
.subckt 1280_78477047_4.7u 1 2
Rp 1 2 9.408
Cp 1 2 1.8p
Rs 1 N3 0.0165
L1 N3 2 4.7u
.ends 1280_78477047_4.7u
*******
.subckt 1280_78477068_6.8u 1 2
Rp 1 2 14.557
Cp 1 2 2.138p
Rs 1 N3 0.021
L1 N3 2 6.8u
.ends 1280_78477068_6.8u
*******
.subckt 1280_784770100_10u 1 2
Rp 1 2 18.808
Cp 1 2 3.266p
Rs 1 N3 0.026
L1 N3 2 10u
.ends 1280_784770100_10u
*******
.subckt 1280_784770101_100u 1 2
Rp 1 2 97.591
Cp 1 2 10.446p
Rs 1 N3 0.12
L1 N3 2 100u
.ends 1280_784770101_100u
*******
.subckt 1280_784770102_1m 1 2
Rp 1 2 83.224
Cp 1 2 12.203p
Rs 1 N3 1
L1 N3 2 1000u
.ends 1280_784770102_1m
*******
.subckt 1280_784770220_22u 1 2
Rp 1 2 31.941
Cp 1 2 5.259p
Rs 1 N3 0.037
L1 N3 2 22u
.ends 1280_784770220_22u
*******
.subckt 1280_784770221_220u 1 2
Rp 1 2 133.347
Cp 1 2 11.207p
Rs 1 N3 0.25
L1 N3 2 220u
.ends 1280_784770221_220u
*******
.subckt 1280_784770470_47u 1 2
Rp 1 2 56.578
Cp 1 2 9.502p
Rs 1 N3 0.059
L1 N3 2 47u
.ends 1280_784770470_47u
*******
.subckt 1280_784770471_470u 1 2
Rp 1 2 145.182
Cp 1 2 14.238p
Rs 1 N3 0.475
L1 N3 2 470u
.ends 1280_784770471_470u
*******
.subckt 1280_784770330_33u 1 2
Rp 1 2 30
Cp 1 2 9.75p
Rs 1 N3 0.0458
L1 N3 2 33u
.ends 1280_784770330_33u
*******
.subckt 1280_784770680_68u 1 2
Rp 1 2 72.5
Cp 1 2 9.849p
Rs 1 N3 0.082
L1 N3 2 68u
.ends 1280_784770680_68u
*******
.subckt 1280_784770331_330u 1 2
Rp 1 2 264
Cp 1 2 11.8p
Rs 1 N3 0.39
L1 N3 2 330u
.ends 1280_784770331_330u
*******
.subckt 7332_784778010_1u 1 2
Rp 1 2 2.307
Cp 1 2 911.243p
Rs 1 N3 0.03
L1 N3 2 1u
.ends 7332_784778010_1u
*******
.subckt 7332_784778022_2.2u 1 2
Rp 1 2 4.386
Cp 1 2 100.23p
Rs 1 N3 0.042
L1 N3 2 2.2u
.ends 7332_784778022_2.2u
*******
.subckt 7332_784778033_3.3u 1 2
Rp 1 2 6.872
Cp 1 2 1.666p
Rs 1 N3 0.054
L1 N3 2 3.3u
.ends 7332_784778033_3.3u
*******
.subckt 7332_784778047_4.7u 1 2
Rp 1 2 9.766
Cp 1 2 2.09p
Rs 1 N3 0.066
L1 N3 2 4.7u
.ends 7332_784778047_4.7u
*******
.subckt 7332_784778068_6.8u 1 2
Rp 1 2 13.716
Cp 1 2 2.378p
Rs 1 N3 0.079
L1 N3 2 6.8u
.ends 7332_784778068_6.8u
*******
.subckt 7332_784778082_8.2u 1 2
Rp 1 2 15.327
Cp 1 2 2.506p
Rs 1 N3 0.086
L1 N3 2 8.2u
.ends 7332_784778082_8.2u
*******
.subckt 7332_784778100_10u 1 2
Rp 1 2 19.048
Cp 1 2 2.327p
Rs 1 N3 0.105
L1 N3 2 10u
.ends 7332_784778100_10u
*******
.subckt 7332_784778220_22u 1 2
Rp 1 2 14.696
Cp 1 2 3.89p
Rs 1 N3 0.156
L1 N3 2 22u
.ends 7332_784778220_22u
*******
.subckt 7332_784778470_47u 1 2
Rp 1 2 61.264
Cp 1 2 3.195p
Rs 1 N3 0.29
L1 N3 2 47u
.ends 7332_784778470_47u
*******
.subckt 7332_784778101_100u 1 2
Rp 1 2 101.282
Cp 1 2 3.286p
Rs 1 N3 0.6
L1 N3 2 100u
.ends 7332_784778101_100u
*******
.subckt 7332_784778221_220u 1 2
Rp 1 2 159.661
Cp 1 2 3.387p
Rs 1 N3 1.35
L1 N3 2 220u
.ends 7332_784778221_220u
*******
.subckt 7332_784778471_470u 1 2
Rp 1 2 231.35
Cp 1 2 3.567p
Rs 1 N3 2.74
L1 N3 2 470u
.ends 7332_784778471_470u
*******
.subckt 7332_784778102_1m 1 2
Rp 1 2 241.277
Cp 1 2 8.166p
Rs 1 N3 6
L1 N3 2 1000u
.ends 7332_784778102_1m
*******
.subckt 7345_784777010_1u 1 2
Rp 1 2 2.091
Cp 1 2 0.843p
Rs 1 N3 0.032
L1 N3 2 1u
.ends 7345_784777010_1u
*******
.subckt 7345_784777022_2.2u 1 2
Rp 1 2 4.971
Cp 1 2 1.291p
Rs 1 N3 0.051
L1 N3 2 2.2u
.ends 7345_784777022_2.2u
*******
.subckt 7345_784777033_3.3u 1 2
Rp 1 2 6.194
Cp 1 2 1.202p
Rs 1 N3 0.058
L1 N3 2 3.3u
.ends 7345_784777033_3.3u
*******
.subckt 7345_784777047_4.7u 1 2
Rp 1 2 8.558
Cp 1 2 1.474p
Rs 1 N3 0.07
L1 N3 2 4.7u
.ends 7345_784777047_4.7u
*******
.subckt 7345_784777068_6.8u 1 2
Rp 1 2 11.501
Cp 1 2 1.91p
Rs 1 N3 0.083
L1 N3 2 6.8u
.ends 7345_784777068_6.8u
*******
.subckt 7345_784777082_8.2u 1 2
Rp 1 2 14.719
Cp 1 2 2.374p
Rs 1 N3 0.0975
L1 N3 2 8.2u
.ends 7345_784777082_8.2u
*******
.subckt 7345_784777100_10u 1 2
Rp 1 2 15.521
Cp 1 2 2.626p
Rs 1 N3 0.105
L1 N3 2 10u
.ends 7345_784777100_10u
*******
.subckt 7345_784777101_100u 1 2
Rp 1 2 70.705
Cp 1 2 5.117p
Rs 1 N3 0.39
L1 N3 2 100u
.ends 7345_784777101_100u
*******
.subckt 7345_784777102_1m 1 2
Rp 1 2 241.277
Cp 1 2 8.166p
Rs 1 N3 4.8
L1 N3 2 1000u
.ends 7345_784777102_1m
*******
.subckt 7345_784777220_22u 1 2
Rp 1 2 34.713
Cp 1 2 3.587p
Rs 1 N3 0.18
L1 N3 2 22u
.ends 7345_784777220_22u
*******
.subckt 7345_784777221_220u 1 2
Rp 1 2 100.867
Cp 1 2 6.914p
Rs 1 N3 0.945
L1 N3 2 220u
.ends 7345_784777221_220u
*******
.subckt 7345_784777470_47u 1 2
Rp 1 2 39.241
Cp 1 2 5.737p
Rs 1 N3 0.25
L1 N3 2 47u
.ends 7345_784777470_47u
*******
.subckt 7345_784777471_470u 1 2
Rp 1 2 177.77
Cp 1 2 6.744p
Rs 1 N3 2.27
L1 N3 2 470u
.ends 7345_784777471_470u
*******
.subckt 1210_7847709150_15u 1 2
Rp 1 2 19.8
Cp 1 2 3.94p
Rs 1 N3 30.5
L1 N3 2 15u
.ends 1210_7847709150_15u
*******

