**************************************************
* Manufacturer: 		Wurth Elektronik
* Kinds:			Single Coil Power Inductor
* Matchcode: 		WE-PD2A
* Library Type:		LTspice
* Version: 		rev18a
* Created/modified by:	Fredo Huang
* Date and Time   :		2018-01-03
* Team: 			eiSos EDA Service
* Contact: 		libraries@we-online.com
**************************************************
.subckt 1054_78477610_10u 1 2
Rp 1 2 13035
Cp 1 2 3.808p
Rs 1 N3 0.028
L1 N3 2 10u
.ends 1054_78477610_10u
*******
.subckt 1054_78477620_100u 1 2
Rp 1 2 60028
Cp 1 2 6.845p
Rs 1 N3 0.2
L1 N3 2 100u
.ends 1054_78477620_100u
*******
.subckt 1054_784776012_1.2u 1 2
Rp 1 2 2854
Cp 1 2 2.083p
Rs 1 N3 0.004
L1 N3 2 1.2u
.ends 1054_784776012_1.2u
*******
.subckt 1054_784776022_2.2u 1 2
Rp 1 2 5375
Cp 1 2 2.794p
Rs 1 N3 0.007
L1 N3 2 2.2u
.ends 1054_784776022_2.2u
*******
.subckt 1054_784776033_3.3u 1 2
Rp 1 2 6641
Cp 1 2 2.968p
Rs 1 N3 0.009
L1 N3 2 3.3u
.ends 1054_784776033_3.3u
*******
.subckt 1054_784776047_4.7u 1 2
Rp 1 2 7013
Cp 1 2 3.37p
Rs 1 N3 0.012
L1 N3 2 4.7u
.ends 1054_784776047_4.7u
*******
.subckt 1054_784776056_5.6u 1 2
Rp 1 2 8734
Cp 1 2 3.213p
Rs 1 N3 0.015
L1 N3 2 5.6u
.ends 1054_784776056_5.6u
*******
.subckt 1054_784776068_6.8u 1 2
Rp 1 2 10473
Cp 1 2 4.921p
Rs 1 N3 0.016
L1 N3 2 6.8u
.ends 1054_784776068_6.8u
*******
.subckt 1054_784776082_8.2u 1 2
Rp 1 2 13497
Cp 1 2 4.693p
Rs 1 N3 0.02
L1 N3 2 8.2u
.ends 1054_784776082_8.2u
*******
.subckt 1054_784776112_12u 1 2
Rp 1 2 19541
Cp 1 2 3.769p
Rs 1 N3 0.033
L1 N3 2 12u
.ends 1054_784776112_12u
*******
.subckt 1054_784776115_15u 1 2
Rp 1 2 20035
Cp 1 2 5.343p
Rs 1 N3 0.034
L1 N3 2 15u
.ends 1054_784776115_15u
*******
.subckt 1054_784776118_18u 1 2
Rp 1 2 23601
Cp 1 2 5.934p
Rs 1 N3 0.043
L1 N3 2 18u
.ends 1054_784776118_18u
*******
.subckt 1054_784776122_22u 1 2
Rp 1 2 25733
Cp 1 2 5.516p
Rs 1 N3 0.051
L1 N3 2 22u
.ends 1054_784776122_22u
*******
.subckt 1054_784776127_27u 1 2
Rp 1 2 32972
Cp 1 2 6.034p
Rs 1 N3 0.063
L1 N3 2 27u
.ends 1054_784776127_27u
*******
.subckt 1054_784776133_33u 1 2
Rp 1 2 31667
Cp 1 2 5.849p
Rs 1 N3 0.083
L1 N3 2 33u
.ends 1054_784776133_33u
*******
.subckt 1054_784776139_39u 1 2
Rp 1 2 42128
Cp 1 2 6.34p
Rs 1 N3 0.098
L1 N3 2 39u
.ends 1054_784776139_39u
*******
.subckt 1054_784776147_47u 1 2
Rp 1 2 48128
Cp 1 2 7.166p
Rs 1 N3 0.095
L1 N3 2 47u
.ends 1054_784776147_47u
*******
.subckt 1054_784776156_56u 1 2
Rp 1 2 56398
Cp 1 2 6.51p
Rs 1 N3 0.112
L1 N3 2 56u
.ends 1054_784776156_56u
*******
.subckt 1054_784776168_68u 1 2
Rp 1 2 48869
Cp 1 2 6.139p
Rs 1 N3 0.138
L1 N3 2 68u
.ends 1054_784776168_68u
*******
.subckt 1054_784776182_82u 1 2
Rp 1 2 67716
Cp 1 2 7.77p
Rs 1 N3 0.15
L1 N3 2 82u
.ends 1054_784776182_82u
*******
.subckt 1054_784776212_120u 1 2
Rp 1 2 85667
Cp 1 2 7.64p
Rs 1 N3 0.243
L1 N3 2 120u
.ends 1054_784776212_120u
*******
.subckt 1054_784776215_150u 1 2
Rp 1 2 102377
Cp 1 2 6.226p
Rs 1 N3 0.3
L1 N3 2 150u
.ends 1054_784776215_150u
*******
.subckt 1054_784776218_180u 1 2
Rp 1 2 92907
Cp 1 2 6.513p
Rs 1 N3 0.32
L1 N3 2 180u
.ends 1054_784776218_180u
*******
.subckt 1054_784776222_220u 1 2
Rp 1 2 93099
Cp 1 2 6.777p
Rs 1 N3 0.451
L1 N3 2 220u
.ends 1054_784776222_220u
*******
.subckt 1054_784776227_270u 1 2
Rp 1 2 89759
Cp 1 2 7.93p
Rs 1 N3 0.5
L1 N3 2 270u
.ends 1054_784776227_270u
*******
.subckt 1054_784776233_330u 1 2
Rp 1 2 141012
Cp 1 2 6.849p
Rs 1 N3 0.75
L1 N3 2 330u
.ends 1054_784776233_330u
*******
.subckt 1054_784776239_390u 1 2
Rp 1 2 149517
Cp 1 2 7.906p
Rs 1 N3 0.794
L1 N3 2 390u
.ends 1054_784776239_390u
*******
.subckt 1054_784776247_470u 1 2
Rp 1 2 137510
Cp 1 2 7.329p
Rs 1 N3 0.969
L1 N3 2 470u
.ends 1054_784776247_470u
*******
.subckt 4532_7847730_1u 1 2
Rp 1 2 4148
Cp 1 2 1.199p
Rs 1 N3 0.014
L1 N3 2 1u
.ends 4532_7847730_1u
*******
.subckt 4532_78477310_10u 1 2
Rp 1 2 22283
Cp 1 2 1.951p
Rs 1 N3 0.118
L1 N3 2 10u
.ends 4532_78477310_10u
*******
.subckt 4532_784773018_1.8u 1 2
Rp 1 2 5754
Cp 1 2 1.525p
Rs 1 N3 0.028
L1 N3 2 1.8u
.ends 4532_784773018_1.8u
*******
.subckt 4532_784773022_2.2u 1 2
Rp 1 2 6715
Cp 1 2 1.577p
Rs 1 N3 0.034
L1 N3 2 2.2u
.ends 4532_784773022_2.2u
*******
.subckt 4532_784773033_3.3u 1 2
Rp 1 2 10323
Cp 1 2 1.663p
Rs 1 N3 0.041
L1 N3 2 3.3u
.ends 4532_784773033_3.3u
*******
.subckt 4532_784773039_3.9u 1 2
Rp 1 2 10621
Cp 1 2 1.631p
Rs 1 N3 0.054
L1 N3 2 3.9u
.ends 4532_784773039_3.9u
*******
.subckt 4532_784773047_4.7u 1 2
Rp 1 2 12896
Cp 1 2 1.656p
Rs 1 N3 0.059
L1 N3 2 4.7u
.ends 4532_784773047_4.7u
*******
.subckt 4532_784773056_5.6u 1 2
Rp 1 2 14249
Cp 1 2 1.67p
Rs 1 N3 0.069
L1 N3 2 5.6u
.ends 4532_784773056_5.6u
*******
.subckt 4532_784773068_6.8u 1 2
Rp 1 2 17041
Cp 1 2 1.774p
Rs 1 N3 0.076
L1 N3 2 6.8u
.ends 4532_784773068_6.8u
*******
.subckt 4532_784773082_8.2u 1 2
Rp 1 2 18807
Cp 1 2 2.082p
Rs 1 N3 0.116
L1 N3 2 8.2u
.ends 4532_784773082_8.2u
*******
.subckt 4532_784773112_12u 1 2
Rp 1 2 21994
Cp 1 2 1.954p
Rs 1 N3 0.156
L1 N3 2 12u
.ends 4532_784773112_12u
*******
.subckt 4532_784773115_15u 1 2
Rp 1 2 27492
Cp 1 2 2.136p
Rs 1 N3 0.204
L1 N3 2 15u
.ends 4532_784773115_15u
*******
.subckt 4532_784773118_18u 1 2
Rp 1 2 32281
Cp 1 2 2.023p
Rs 1 N3 0.225
L1 N3 2 18u
.ends 4532_784773118_18u
*******
.subckt 4532_784773122_22u 1 2
Rp 1 2 37300
Cp 1 2 2.165p
Rs 1 N3 0.261
L1 N3 2 22u
.ends 4532_784773122_22u
*******
.subckt 4532_784773127_27u 1 2
Rp 1 2 38285
Cp 1 2 2.094p
Rs 1 N3 0.328
L1 N3 2 27u
.ends 4532_784773127_27u
*******
.subckt 4532_784773133_33u 1 2
Rp 1 2 38224
Cp 1 2 2.087p
Rs 1 N3 0.37
L1 N3 2 33u
.ends 4532_784773133_33u
*******
.subckt 4532_784773139_39u 1 2
Rp 1 2 49291
Cp 1 2 9.889p
Rs 1 N3 0.418
L1 N3 2 39u
.ends 4532_784773139_39u
*******
.subckt 4532_784773147_47u 1 2
Rp 1 2 74067
Cp 1 2 2.231p
Rs 1 N3 0.523
L1 N3 2 47u
.ends 4532_784773147_47u
*******
.subckt 4532_784773156_56u 1 2
Rp 1 2 65219
Cp 1 2 2.383p
Rs 1 N3 0.714
L1 N3 2 56u
.ends 4532_784773156_56u
*******
.subckt 4532_784773168_68u 1 2
Rp 1 2 73900
Cp 1 2 2.431p
Rs 1 N3 0.754
L1 N3 2 68u
.ends 4532_784773168_68u
*******
.subckt 5848_78477410_10u 1 2
Rp 1 2 18211
Cp 1 2 2.667p
Rs 1 N3 0.078
L1 N3 2 10u
.ends 5848_78477410_10u
*******
.subckt 5848_78477420_100u 1 2
Rp 1 2 121926
Cp 1 2 3.348p
Rs 1 N3 0.51
L1 N3 2 100u
.ends 5848_78477420_100u
*******
.subckt 5848_784774022_2.2u 1 2
Rp 1 2 11653
Cp 1 2 2.969p
Rs 1 N3 0.026
L1 N3 2 2.2u
.ends 5848_784774022_2.2u
*******
.subckt 5848_784774027_2.7u 1 2
Rp 1 2 12943
Cp 1 2 3.278p
Rs 1 N3 0.032
L1 N3 2 2.7u
.ends 5848_784774027_2.7u
*******
.subckt 5848_784774033_3.3u 1 2
Rp 1 2 15188
Cp 1 2 3.369p
Rs 1 N3 0.042
L1 N3 2 3.3u
.ends 5848_784774033_3.3u
*******
.subckt 5848_784774047_4.7u 1 2
Rp 1 2 18558
Cp 1 2 3.497p
Rs 1 N3 0.056
L1 N3 2 4.7u
.ends 5848_784774047_4.7u
*******
.subckt 5848_784774068_6.8u 1 2
Rp 1 2 22018
Cp 1 2 3.362p
Rs 1 N3 0.071
L1 N3 2 6.8u
.ends 5848_784774068_6.8u
*******
.subckt 5848_784774112_12u 1 2
Rp 1 2 20530
Cp 1 2 2.69p
Rs 1 N3 0.082
L1 N3 2 12u
.ends 5848_784774112_12u
*******
.subckt 5848_784774115_15u 1 2
Rp 1 2 28975
Cp 1 2 2.836p
Rs 1 N3 0.089
L1 N3 2 15u
.ends 5848_784774115_15u
*******
.subckt 5848_784774118_18u 1 2
Rp 1 2 28884
Cp 1 2 2.86p
Rs 1 N3 0.104
L1 N3 2 18u
.ends 5848_784774118_18u
*******
.subckt 5848_784774122_22u 1 2
Rp 1 2 35680
Cp 1 2 2.97p
Rs 1 N3 0.109
L1 N3 2 22u
.ends 5848_784774122_22u
*******
.subckt 5848_784774127_27u 1 2
Rp 1 2 45599
Cp 1 2 3.334p
Rs 1 N3 0.133
L1 N3 2 27u
.ends 5848_784774127_27u
*******
.subckt 5848_784774133_33u 1 2
Rp 1 2 53465
Cp 1 2 3.138p
Rs 1 N3 0.15
L1 N3 2 33u
.ends 5848_784774133_33u
*******
.subckt 5848_784774139_39u 1 2
Rp 1 2 51434
Cp 1 2 2.866p
Rs 1 N3 0.215
L1 N3 2 39u
.ends 5848_784774139_39u
*******
.subckt 5848_784774147_47u 1 2
Rp 1 2 54986
Cp 1 2 3.002p
Rs 1 N3 0.26
L1 N3 2 47u
.ends 5848_784774147_47u
*******
.subckt 5848_784774156_56u 1 2
Rp 1 2 62844
Cp 1 2 3.009p
Rs 1 N3 0.298
L1 N3 2 56u
.ends 5848_784774156_56u
*******
.subckt 5848_784774168_68u 1 2
Rp 1 2 76697
Cp 1 2 3.081p
Rs 1 N3 0.313
L1 N3 2 68u
.ends 5848_784774168_68u
*******
.subckt 5848_784774182_82u 1 2
Rp 1 2 99452
Cp 1 2 3.405p
Rs 1 N3 0.475
L1 N3 2 82u
.ends 5848_784774182_82u
*******
.subckt 5848_784774212_120u 1 2
Rp 1 2 140140
Cp 1 2 3.348p
Rs 1 N3 0.66
L1 N3 2 120u
.ends 5848_784774212_120u
*******
.subckt 5848_784774215_150u 1 2
Rp 1 2 159466
Cp 1 2 3.481p
Rs 1 N3 0.72
L1 N3 2 150u
.ends 5848_784774215_150u
*******
.subckt 5848_784774218_180u 1 2
Rp 1 2 189610
Cp 1 2 3.246p
Rs 1 N3 0.85
L1 N3 2 180u
.ends 5848_784774218_180u
*******
.subckt 5848_784774222_220u 1 2
Rp 1 2 208936
Cp 1 2 3.387p
Rs 1 N3 0.945
L1 N3 2 220u
.ends 5848_784774222_220u
*******
.subckt 7850_78477510_10u 1 2
Rp 1 2 16424
Cp 1 2 2.779p
Rs 1 N3 0.04
L1 N3 2 10u
.ends 7850_78477510_10u
*******
.subckt 7850_78477520_100u 1 2
Rp 1 2 104821
Cp 1 2 3.713p
Rs 1 N3 0.281
L1 N3 2 100u
.ends 7850_78477520_100u
*******
.subckt 7850_784775012_1.2u 1 2
Rp 1 2 3204
Cp 1 2 1.99p
Rs 1 N3 0.005
L1 N3 2 1.2u
.ends 7850_784775012_1.2u
*******
.subckt 7850_784775022_2.2u 1 2
Rp 1 2 5325
Cp 1 2 2.151p
Rs 1 N3 0.008
L1 N3 2 2.2u
.ends 7850_784775022_2.2u
*******
.subckt 7850_784775033_3.3u 1 2
Rp 1 2 7823
Cp 1 2 2.552p
Rs 1 N3 0.012
L1 N3 2 3.3u
.ends 7850_784775033_3.3u
*******
.subckt 7850_784775047_4.7u 1 2
Rp 1 2 9103
Cp 1 2 2.498p
Rs 1 N3 0.016
L1 N3 2 4.7u
.ends 7850_784775047_4.7u
*******
.subckt 7850_784775056_5.6u 1 2
Rp 1 2 10274
Cp 1 2 2.737p
Rs 1 N3 0.018
L1 N3 2 5.6u
.ends 7850_784775056_5.6u
*******
.subckt 7850_784775068_6.8u 1 2
Rp 1 2 13545
Cp 1 2 2.723p
Rs 1 N3 0.022
L1 N3 2 6.8u
.ends 7850_784775068_6.8u
*******
.subckt 7850_784775082_8.2u 1 2
Rp 1 2 15056
Cp 1 2 3.045p
Rs 1 N3 0.024
L1 N3 2 8.2u
.ends 7850_784775082_8.2u
*******
.subckt 7850_784775112_12u 1 2
Rp 1 2 20036
Cp 1 2 3.195p
Rs 1 N3 0.042
L1 N3 2 12u
.ends 7850_784775112_12u
*******
.subckt 7850_784775115_15u 1 2
Rp 1 2 24297
Cp 1 2 3.216p
Rs 1 N3 0.044
L1 N3 2 15u
.ends 7850_784775115_15u
*******
.subckt 7850_784775118_18u 1 2
Rp 1 2 27614
Cp 1 2 3.321p
Rs 1 N3 0.053
L1 N3 2 18u
.ends 7850_784775118_18u
*******
.subckt 7850_784775122_22u 1 2
Rp 1 2 30904
Cp 1 2 3.29p
Rs 1 N3 0.065
L1 N3 2 22u
.ends 7850_784775122_22u
*******
.subckt 7850_784775127_27u 1 2
Rp 1 2 45613
Cp 1 2 3.55p
Rs 1 N3 0.074
L1 N3 2 27u
.ends 7850_784775127_27u
*******
.subckt 7850_784775133_33u 1 2
Rp 1 2 44853
Cp 1 2 3.438p
Rs 1 N3 0.089
L1 N3 2 33u
.ends 7850_784775133_33u
*******
.subckt 7850_784775139_39u 1 2
Rp 1 2 47106
Cp 1 2 3.639p
Rs 1 N3 0.116
L1 N3 2 39u
.ends 7850_784775139_39u
*******
.subckt 7850_784775147_47u 1 2
Rp 1 2 61345
Cp 1 2 13.35p
Rs 1 N3 0.134
L1 N3 2 47u
.ends 7850_784775147_47u
*******
.subckt 7850_784775168_68u 1 2
Rp 1 2 77918
Cp 1 2 3.664p
Rs 1 N3 0.218
L1 N3 2 68u
.ends 7850_784775168_68u
*******
.subckt 7850_784775182_82u 1 2
Rp 1 2 86377
Cp 1 2 3.867p
Rs 1 N3 0.248
L1 N3 2 82u
.ends 7850_784775182_82u
*******
.subckt 7850_784775212_120u 1 2
Rp 1 2 91873
Cp 1 2 20.977p
Rs 1 N3 0.34
L1 N3 2 120u
.ends 7850_784775212_120u
*******
.subckt 7850_784775215_150u 1 2
Rp 1 2 168654
Cp 1 2 3.941p
Rs 1 N3 0.467
L1 N3 2 150u
.ends 7850_784775215_150u
*******
.subckt 7850_784775218_180u 1 2
Rp 1 2 158858
Cp 1 2 4.027p
Rs 1 N3 0.574
L1 N3 2 180u
.ends 7850_784775218_180u
*******
.subckt 7850_784775222_220u 1 2
Rp 1 2 195165
Cp 1 2 3.728p
Rs 1 N3 0.614
L1 N3 2 220u
.ends 7850_784775222_220u
*******
.subckt 7850_784775227_270u 1 2
Rp 1 2 194699
Cp 1 2 4.392p
Rs 1 N3 0.699
L1 N3 2 270u
.ends 7850_784775227_270u
*******
.subckt 7850_784775233_330u 1 2
Rp 1 2 213144
Cp 1 2 4.501p
Rs 1 N3 0.98
L1 N3 2 330u
.ends 7850_784775233_330u
*******
.subckt 7850_784775239_390u 1 2
Rp 1 2 300959
Cp 1 2 3.983p
Rs 1 N3 1.151
L1 N3 2 390u
.ends 7850_784775239_390u
*******
.subckt 7850_784775247_470u 1 2
Rp 1 2 242537
Cp 1 2 4.045p
Rs 1 N3 1.37
L1 N3 2 470u
.ends 7850_784775247_470u
*******
