*******************************************************
* Manufacturer: 		Wurth Elektronik
* Kinds:			SMD Shielded Power Inductor
* Matchcode: 		WE-PD
* Library Type:		LTspice
* Version: 		rev18a
* Created/modified by:	Fredo Huang
* Date and Time   :		2018-01-03
* Team: 			eiSos EDA Service
* Contact: 		libraries@we-online.com
*******************************************************
.subckt 1030_7447713015_1.5u 1 2
Rp 1 2 554
Cp 1 2 2.982p
Rs 1 N3 0.0137
L1 N3 2 1.5u
.ends 1030_7447713015_1.5u
*******
.subckt 1030_7447713022_2.2u 1 2
Rp 1 2 872.667
Cp 1 2 2.598p
Rs 1 N3 0.0168
L1 N3 2 2.2u
.ends 1030_7447713022_2.2u
*******
.subckt 1030_7447713033_3.3u 1 2
Rp 1 2 1182.67
Cp 1 2 3.651p
Rs 1 N3 0.0204
L1 N3 2 3.3u
.ends 1030_7447713033_3.3u
*******
.subckt 1030_7447713047_4.7u 1 2
Rp 1 2 1647.33
Cp 1 2 3.336p
Rs 1 N3 0.026
L1 N3 2 4.7u
.ends 1030_7447713047_4.7u
*******
.subckt 1030_7447713082_8.2u 1 2
Rp 1 2 2894
Cp 1 2 3.74p
Rs 1 N3 0.041
L1 N3 2 8.2u
.ends 1030_7447713082_8.2u
*******
.subckt 1030_7447713100_10u 1 2
Rp 1 2 3417.33
Cp 1 2 3.547p
Rs 1 N3 0.0515
L1 N3 2 10u
.ends 1030_7447713100_10u
*******
.subckt 1030_7447713150_15u 1 2
Rp 1 2 11254.7
Cp 1 2 3.772p
Rs 1 N3 0.074
L1 N3 2 15u
.ends 1030_7447713150_15u
*******
.subckt 1030_7447713220_22u 1 2
Rp 1 2 20434.3
Cp 1 2 4.569p
Rs 1 N3 0.111
L1 N3 2 22u
.ends 1030_7447713220_22u
*******
.subckt 1030_7447713330_33u 1 2
Rp 1 2 23713.3
Cp 1 2 4.287p
Rs 1 N3 0.17
L1 N3 2 33u
.ends 1030_7447713330_33u
*******
.subckt 1030_7447713470_47u 1 2
Rp 1 2 31982.3
Cp 1 2 4.646p
Rs 1 N3 0.207
L1 N3 2 47u
.ends 1030_7447713470_47u
*******
.subckt 1030_7447713680_68u 1 2
Rp 1 2 49693.3
Cp 1 2 4.62p
Rs 1 N3 0.275
L1 N3 2 68u
.ends 1030_7447713680_68u
*******
.subckt 1030_7447713820_82u 1 2
Rp 1 2 49536.7
Cp 1 2 5.05p
Rs 1 N3 0.349
L1 N3 2 82u
.ends 1030_7447713820_82u
*******
.subckt 1030_7447713101_100u 1 2
Rp 1 2 5395
Cp 1 2 4.426p
Rs 1 N3 0.398
L1 N3 2 100u
.ends 1030_7447713101_100u
*******
.subckt 1030_7447713121_120u 1 2
Rp 1 2 7396.33
Cp 1 2 3.692p
Rs 1 N3 0.498
L1 N3 2 120u
.ends 1030_7447713121_120u
*******
.subckt 1030_7447713151_150u 1 2
Rp 1 2 14060.3
Cp 1 2 4.305p
Rs 1 N3 0.57
L1 N3 2 150u
.ends 1030_7447713151_150u
*******
.subckt 1030_7447713471_470u 1 2
Rp 1 2 95000
Cp 1 2 4.45p
Rs 1 N3 1.85
L1 N3 2 470u
.ends 1030_7447713471_470u
*******
.subckt 1030_7447713102_1m 1 2
Rp 1 2 224000
Cp 1 2 5.12p
Rs 1 N3 4
L1 N3 2 1000u
.ends 1030_7447713102_1m
*******
.subckt 1050_7447714015_1.5u 1 2
Rp 1 2 749.333
Cp 1 2 3.738p
Rs 1 N3 0.00555
L1 N3 2 1.5u
.ends 1050_7447714015_1.5u
*******
.subckt 1050_7447714022_2.2u 1 2
Rp 1 2 1192.67
Cp 1 2 4.391p
Rs 1 N3 0.0068
L1 N3 2 2.2u
.ends 1050_7447714022_2.2u
*******
.subckt 1050_7447714033_3.3u 1 2
Rp 1 2 1971.67
Cp 1 2 4.599p
Rs 1 N3 0.0089
L1 N3 2 3.3u
.ends 1050_7447714033_3.3u
*******
.subckt 1050_7447714047_4.7u 1 2
Rp 1 2 2725.33
Cp 1 2 5.199p
Rs 1 N3 0.0104
L1 N3 2 4.7u
.ends 1050_7447714047_4.7u
*******
.subckt 1050_7447714056_5.6u 1 2
Rp 1 2 3954.67
Cp 1 2 6.13p
Rs 1 N3 0.012
L1 N3 2 5.6u
.ends 1050_7447714056_5.6u
*******
.subckt 1050_7447714068_6.8u 1 2
Rp 1 2 4811
Cp 1 2 5.957p
Rs 1 N3 0.0185
L1 N3 2 6.8u
.ends 1050_7447714068_6.8u
*******
.subckt 1050_7447714100_10u 1 2
Rp 1 2 8159
Cp 1 2 6.341p
Rs 1 N3 0.023
L1 N3 2 10u
.ends 1050_7447714100_10u
*******
.subckt 1050_7447714150_15u 1 2
Rp 1 2 11070
Cp 1 2 5.816p
Rs 1 N3 0.036
L1 N3 2 15u
.ends 1050_7447714150_15u
*******
.subckt 1050_7447714220_22u 1 2
Rp 1 2 13849.7
Cp 1 2 5.849p
Rs 1 N3 0.042
L1 N3 2 22u
.ends 1050_7447714220_22u
*******
.subckt 1050_7447714330_33u 1 2
Rp 1 2 18813.3
Cp 1 2 6.313p
Rs 1 N3 0.066
L1 N3 2 33u
.ends 1050_7447714330_33u
*******
.subckt 1050_7447714470_47u 1 2
Rp 1 2 28380
Cp 1 2 7.54p
Rs 1 N3 0.0825
L1 N3 2 47u
.ends 1050_7447714470_47u
*******
.subckt 1050_7447714560_56u 1 2
Rp 1 2 34516.7
Cp 1 2 6.125p
Rs 1 N3 0.101
L1 N3 2 56u
.ends 1050_7447714560_56u
*******
.subckt 1050_7447714680_68u 1 2
Rp 1 2 37220
Cp 1 2 6.541p
Rs 1 N3 0.11
L1 N3 2 68u
.ends 1050_7447714680_68u
*******
.subckt 1050_7447714820_82u 1 2
Rp 1 2 46289
Cp 1 2 7.48p
Rs 1 N3 0.147
L1 N3 2 82u
.ends 1050_7447714820_82u
*******
.subckt 1050_7447714101_100u 1 2
Rp 1 2 49776.7
Cp 1 2 7.737p
Rs 1 N3 0.165
L1 N3 2 100u
.ends 1050_7447714101_100u
*******
.subckt 1050_7447714151_150u 1 2
Rp 1 2 85633.3
Cp 1 2 6.845p
Rs 1 N3 0.251
L1 N3 2 150u
.ends 1050_7447714151_150u
*******
.subckt 1050_7447714221_220u 1 2
Rp 1 2 89931.3
Cp 1 2 7.741p
Rs 1 N3 0.366
L1 N3 2 220u
.ends 1050_7447714221_220u
*******
.subckt 1050_7447714331_330u 1 2
Rp 1 2 122333
Cp 1 2 7.733p
Rs 1 N3 0.655
L1 N3 2 330u
.ends 1050_7447714331_330u
*******
.subckt 1050_7447714471_470u 1 2
Rp 1 2 149056
Cp 1 2 8.032p
Rs 1 N3 0.96
L1 N3 2 470u
.ends 1050_7447714471_470u
*******
.subckt 1050_7447714681_680u 1 2
Rp 1 2 244834
Cp 1 2 8.371p
Rs 1 N3 1.22
L1 N3 2 680u
.ends 1050_7447714681_680u
*******
.subckt 1050_7447714102_1m 1 2
Rp 1 2 253713
Cp 1 2 9.386p
Rs 1 N3 1.86
L1 N3 2 1000u
.ends 1050_7447714102_1m
*******
.subckt 1210_7447709001_1u 1 2
Rp 1 2 2116
Cp 1 2 2.688p
Rs 1 N3 0.0038
L1 N3 2 1u
.ends 1210_7447709001_1u
*******
.subckt 1210_7447709002_2.2u 1 2
Rp 1 2 2554
Cp 1 2 4.1p
Rs 1 N3 0.0049
L1 N3 2 2.2u
.ends 1210_7447709002_2.2u
*******
.subckt 1210_7447709003_3.5u 1 2
Rp 1 2 4300
Cp 1 2 4.6p
Rs 1 N3 0.0059
L1 N3 2 3.5u
.ends 1210_7447709003_3.5u
*******
.subckt 1210_7447709004_4.7u 1 2
Rp 1 2 5047
Cp 1 2 6.87p
Rs 1 N3 0.0074
L1 N3 2 4.7u
.ends 1210_7447709004_4.7u
*******
.subckt 1210_7447709006_6.8u 1 2
Rp 1 2 6377
Cp 1 2 9.27p
Rs 1 N3 0.0091
L1 N3 2 6.8u
.ends 1210_7447709006_6.8u
*******
.subckt 1210_7447709100_10u 1 2
Rp 1 2 8445
Cp 1 2 9.8p
Rs 1 N3 0.0129
L1 N3 2 10u
.ends 1210_7447709100_10u
*******
.subckt 1210_7447709150_15u 1 2
Rp 1 2 10343
Cp 1 2 10.3p
Rs 1 N3 0.0207
L1 N3 2 15u
.ends 1210_7447709150_15u
*******
.subckt 1210_7447709220_22u 1 2
Rp 1 2 13263
Cp 1 2 14.26p
Rs 1 N3 0.0233
L1 N3 2 22u
.ends 1210_7447709220_22u
*******
.subckt 1210_7447709270_27u 1 2
Rp 1 2 15585
Cp 1 2 16p
Rs 1 N3 0.03
L1 N3 2 27u
.ends 1210_7447709270_27u
*******
.subckt 1210_7447709330_33u 1 2
Rp 1 2 24025
Cp 1 2 16.68p
Rs 1 N3 0.0368
L1 N3 2 33u
.ends 1210_7447709330_33u
*******
.subckt 1210_7447709390_39u 1 2
Rp 1 2 23447
Cp 1 2 18.784p
Rs 1 N3 0.0439
L1 N3 2 39u
.ends 1210_7447709390_39u
*******
.subckt 1210_7447709470_47u 1 2
Rp 1 2 25000
Cp 1 2 15.188p
Rs 1 N3 0.0459
L1 N3 2 47u
.ends 1210_7447709470_47u
*******
.subckt 1210_7447709680_68u 1 2
Rp 1 2 48000
Cp 1 2 20.05p
Rs 1 N3 0.0686
L1 N3 2 68u
.ends 1210_7447709680_68u
*******
.subckt 1210_7447709101_100u 1 2
Rp 1 2 59146
Cp 1 2 18.224p
Rs 1 N3 0.1
L1 N3 2 100u
.ends 1210_7447709101_100u
*******
.subckt 1210_7447709151_150u 1 2
Rp 1 2 65308
Cp 1 2 22.58p
Rs 1 N3 0.151
L1 N3 2 150u
.ends 1210_7447709151_150u
*******
.subckt 1210_7447709221_220u 1 2
Rp 1 2 72803
Cp 1 2 19.75p
Rs 1 N3 0.193
L1 N3 2 220u
.ends 1210_7447709221_220u
*******
.subckt 1210_7447709271_270u 1 2
Rp 1 2 75720
Cp 1 2 20.77p
Rs 1 N3 0.248
L1 N3 2 270u
.ends 1210_7447709271_270u
*******
.subckt 1210_7447709331_330u 1 2
Rp 1 2 95411
Cp 1 2 19.54p
Rs 1 N3 0.363
L1 N3 2 330u
.ends 1210_7447709331_330u
*******
.subckt 1210_7447709471_470u 1 2
Rp 1 2 98609
Cp 1 2 19.73p
Rs 1 N3 0.437
L1 N3 2 470u
.ends 1210_7447709471_470u
*******
.subckt 1210_7447709681_680u 1 2
Rp 1 2 99082
Cp 1 2 68.677p
Rs 1 N3 0.66
L1 N3 2 680u
.ends 1210_7447709681_680u
*******
.subckt 1210_7447709821_820u 1 2
Rp 1 2 120365
Cp 1 2 22.12p
Rs 1 N3 0.815
L1 N3 2 820u
.ends 1210_7447709821_820u
*******
.subckt 1210_7447709102_1m 1 2
Rp 1 2 103052
Cp 1 2 21.42p
Rs 1 N3 0.93
L1 N3 2 1000u
.ends 1210_7447709102_1m
*******
.subckt 1210_7447709152_1.5m 1 2
Rp 1 2 171070
Cp 1 2 25.56p
Rs 1 N3 1.8
L1 N3 2 1500u
.ends 1210_7447709152_1.5m
*******
.subckt 1245_7447715906_0.6u 1 2
Rp 1 2 1046
Cp 1 2 2.82p
Rs 1 N3 0.0045
L1 N3 2 0.6u
.ends 1245_7447715906_0.6u
*******
.subckt 1245_7447715910_1u 1 2
Rp 1 2 2259
Cp 1 2 2.95p
Rs 1 N3 0.0055
L1 N3 2 1u
.ends 1245_7447715910_1u
*******
.subckt 1245_7447715001_1.8u 1 2
Rp 1 2 3358
Cp 1 2 3.34p
Rs 1 N3 0.0075
L1 N3 2 1.8u
.ends 1245_7447715001_1.8u
*******
.subckt 1245_7447715002_2.5u 1 2
Rp 1 2 4794
Cp 1 2 3.5p
Rs 1 N3 0.0085
L1 N3 2 2.5u
.ends 1245_7447715002_2.5u
*******
.subckt 1245_7447715003_3.3u 1 2
Rp 1 2 6215
Cp 1 2 3.66p
Rs 1 N3 0.0115
L1 N3 2 3.3u
.ends 1245_7447715003_3.3u
*******
.subckt 1245_7447715004_4.7u 1 2
Rp 1 2 8000
Cp 1 2 3.46p
Rs 1 N3 0.0135
L1 N3 2 4.7u
.ends 1245_7447715004_4.7u
*******
.subckt 1245_7447715006_6.8u 1 2
Rp 1 2 12372
Cp 1 2 4.15p
Rs 1 N3 0.02
L1 N3 2 6.8u
.ends 1245_7447715006_6.8u
*******
.subckt 1245_7447715100_10u 1 2
Rp 1 2 14475
Cp 1 2 4.45p
Rs 1 N3 0.025
L1 N3 2 10u
.ends 1245_7447715100_10u
*******
.subckt 1245_7447715120_12u 1 2
Rp 1 2 16330
Cp 1 2 4.28p
Rs 1 N3 0.03
L1 N3 2 12u
.ends 1245_7447715120_12u
*******
.subckt 1245_7447715180_18u 1 2
Rp 1 2 21542
Cp 1 2 4.5p
Rs 1 N3 0.037
L1 N3 2 18u
.ends 1245_7447715180_18u
*******
.subckt 1245_7447715220_22u 1 2
Rp 1 2 23810
Cp 1 2 4.97p
Rs 1 N3 0.045
L1 N3 2 22u
.ends 1245_7447715220_22u
*******
.subckt 1245_7447715330_33u 1 2
Rp 1 2 34455
Cp 1 2 5.2p
Rs 1 N3 0.075
L1 N3 2 33u
.ends 1245_7447715330_33u
*******
.subckt 1245_7447715470_47u 1 2
Rp 1 2 44000
Cp 1 2 4.78p
Rs 1 N3 0.105
L1 N3 2 47u
.ends 1245_7447715470_47u
*******
.subckt 1245_7447715101_100u 1 2
Rp 1 2 78213
Cp 1 2 5.06p
Rs 1 N3 0.25
L1 N3 2 100u
.ends 1245_7447715101_100u
*******
.subckt 1245_7447715221_220u 1 2
Rp 1 2 126000
Cp 1 2 6.1p
Rs 1 N3 0.46
L1 N3 2 220u
.ends 1245_7447715221_220u
*******
.subckt 1260_744771001_1.5u 1 2
Rp 1 2 1908
Cp 1 2 7.43p
Rs 1 N3 0.004
L1 N3 2 1.5u
.ends 1260_744771001_1.5u
*******
.subckt 1260_744771002_2.2u 1 2
Rp 1 2 2708
Cp 1 2 6.41p
Rs 1 N3 0.005
L1 N3 2 2.2u
.ends 1260_744771002_2.2u
*******
.subckt 1260_744771003_3.5u 1 2
Rp 1 2 3235
Cp 1 2 6.456p
Rs 1 N3 0.005
L1 N3 2 3.5u
.ends 1260_744771003_3.5u
*******
.subckt 1260_744771004_4.7u 1 2
Rp 1 2 5192
Cp 1 2 10.1p
Rs 1 N3 0.008
L1 N3 2 4.7u
.ends 1260_744771004_4.7u
*******
.subckt 1260_744771006_6.8u 1 2
Rp 1 2 6430
Cp 1 2 6.22p
Rs 1 N3 0.014
L1 N3 2 6.8u
.ends 1260_744771006_6.8u
*******
.subckt 1260_744771008_8.2u 1 2
Rp 1 2 7034
Cp 1 2 6.4p
Rs 1 N3 0.014
L1 N3 2 8.2u
.ends 1260_744771008_8.2u
*******
.subckt 1260_74477110_10u 1 2
Rp 1 2 8080
Cp 1 2 6.15p
Rs 1 N3 0.021
L1 N3 2 10u
.ends 1260_74477110_10u
*******
.subckt 1260_744771112_12u 1 2
Rp 1 2 11375
Cp 1 2 7.234p
Rs 1 N3 0.023
L1 N3 2 12u
.ends 1260_744771112_12u
*******
.subckt 1260_744771115_15u 1 2
Rp 1 2 9000
Cp 1 2 6.06p
Rs 1 N3 0.025
L1 N3 2 15u
.ends 1260_744771115_15u
*******
.subckt 1260_744771118_18u 1 2
Rp 1 2 12872
Cp 1 2 7.41p
Rs 1 N3 0.029
L1 N3 2 18u
.ends 1260_744771118_18u
*******
.subckt 1260_744771122_22u 1 2
Rp 1 2 11325
Cp 1 2 7.73p
Rs 1 N3 0.031
L1 N3 2 22u
.ends 1260_744771122_22u
*******
.subckt 1260_744771127_27u 1 2
Rp 1 2 14547
Cp 1 2 6.78p
Rs 1 N3 0.04
L1 N3 2 27u
.ends 1260_744771127_27u
*******
.subckt 1260_744771133_33u 1 2
Rp 1 2 25980
Cp 1 2 6.86p
Rs 1 N3 0.049
L1 N3 2 33u
.ends 1260_744771133_33u
*******
.subckt 1260_744771139_39u 1 2
Rp 1 2 19785
Cp 1 2 9.33p
Rs 1 N3 0.057
L1 N3 2 39u
.ends 1260_744771139_39u
*******
.subckt 1260_744771147_47u 1 2
Rp 1 2 25082
Cp 1 2 8.125p
Rs 1 N3 0.072
L1 N3 2 47u
.ends 1260_744771147_47u
*******
.subckt 1260_744771156_56u 1 2
Rp 1 2 26624
Cp 1 2 6.638p
Rs 1 N3 0.087
L1 N3 2 56u
.ends 1260_744771156_56u
*******
.subckt 1260_744771168_68u 1 2
Rp 1 2 38470
Cp 1 2 8.77p
Rs 1 N3 0.096
L1 N3 2 68u
.ends 1260_744771168_68u
*******
.subckt 1260_744771182_82u 1 2
Rp 1 2 39790
Cp 1 2 7.49p
Rs 1 N3 0.129
L1 N3 2 82u
.ends 1260_744771182_82u
*******
.subckt 1260_74477120_100u 1 2
Rp 1 2 58340
Cp 1 2 8.96p
Rs 1 N3 0.15
L1 N3 2 100u
.ends 1260_74477120_100u
*******
.subckt 1260_744771212_120u 1 2
Rp 1 2 43020
Cp 1 2 8.87p
Rs 1 N3 0.159
L1 N3 2 120u
.ends 1260_744771212_120u
*******
.subckt 1260_744771215_150u 1 2
Rp 1 2 61240
Cp 1 2 8.31p
Rs 1 N3 0.185
L1 N3 2 150u
.ends 1260_744771215_150u
*******
.subckt 1260_744771218_180u 1 2
Rp 1 2 73630
Cp 1 2 10.69p
Rs 1 N3 0.242
L1 N3 2 180u
.ends 1260_744771218_180u
*******
.subckt 1260_744771220_220u 1 2
Rp 1 2 86290
Cp 1 2 9.18p
Rs 1 N3 0.29
L1 N3 2 220u
.ends 1260_744771220_220u
*******
.subckt 1260_744771270_270u 1 2
Rp 1 2 101100
Cp 1 2 9.21p
Rs 1 N3 0.338
L1 N3 2 270u
.ends 1260_744771270_270u
*******
.subckt 1260_744771233_330u 1 2
Rp 1 2 123320
Cp 1 2 9.69p
Rs 1 N3 0.442
L1 N3 2 330u
.ends 1260_744771233_330u
*******
.subckt 1260_744771239_390u 1 2
Rp 1 2 152370
Cp 1 2 8.18p
Rs 1 N3 0.59
L1 N3 2 390u
.ends 1260_744771239_390u
*******
.subckt 1260_74477124_470u 1 2
Rp 1 2 143380
Cp 1 2 9.5p
Rs 1 N3 0.66
L1 N3 2 470u
.ends 1260_74477124_470u
*******
.subckt 1260_74477125_560u 1 2
Rp 1 2 139140
Cp 1 2 9.23p
Rs 1 N3 0.69
L1 N3 2 560u
.ends 1260_74477125_560u
*******
.subckt 1260_74477126_680u 1 2
Rp 1 2 160280
Cp 1 2 10.42p
Rs 1 N3 0.88
L1 N3 2 680u
.ends 1260_74477126_680u
*******
.subckt 1260_74477128_820u 1 2
Rp 1 2 163540
Cp 1 2 10.12p
Rs 1 N3 1.025
L1 N3 2 820u
.ends 1260_74477128_820u
*******
.subckt 1260_74477130_1m 1 2
Rp 1 2 179800
Cp 1 2 10.69p
Rs 1 N3 1.43
L1 N3 2 1000u
.ends 1260_74477130_1m
*******
.subckt 1280_74477009_0.47u 1 2
Rp 1 2 1017
Cp 1 2 4.57p
Rs 1 N3 0.0029
L1 N3 2 0.47u
.ends 1280_74477009_0.47u
*******
.subckt 1280_74477008_0.75u 1 2
Rp 1 2 1413
Cp 1 2 3.14p
Rs 1 N3 0.0033
L1 N3 2 0.75u
.ends 1280_74477008_0.75u
*******
.subckt 1280_74477001_1.2u 1 2
Rp 1 2 2485
Cp 1 2 3.7p
Rs 1 N3 0.005
L1 N3 2 1.2u
.ends 1280_74477001_1.2u
*******
.subckt 1280_74477002_2.4u 1 2
Rp 1 2 3306
Cp 1 2 3.638p
Rs 1 N3 0.009
L1 N3 2 2.4u
.ends 1280_74477002_2.4u
*******
.subckt 1280_74477003_3.5u 1 2
Rp 1 2 4626
Cp 1 2 4.37p
Rs 1 N3 0.011
L1 N3 2 3.5u
.ends 1280_74477003_3.5u
*******
.subckt 1280_74477004_4.7u 1 2
Rp 1 2 4500
Cp 1 2 7.36p
Rs 1 N3 0.012
L1 N3 2 4.7u
.ends 1280_74477004_4.7u
*******
.subckt 1280_74477006_6.1u 1 2
Rp 1 2 8487
Cp 1 2 5.38p
Rs 1 N3 0.015
L1 N3 2 6.1u
.ends 1280_74477006_6.1u
*******
.subckt 1280_74477007_7.6u 1 2
Rp 1 2 8779
Cp 1 2 8.372p
Rs 1 N3 0.016
L1 N3 2 7.6u
.ends 1280_74477007_7.6u
*******
.subckt 1280_74477010_10u 1 2
Rp 1 2 6271
Cp 1 2 6.587p
Rs 1 N3 0.019
L1 N3 2 10u
.ends 1280_74477010_10u
*******
.subckt 1280_744770112_12u 1 2
Rp 1 2 12149
Cp 1 2 8.324p
Rs 1 N3 0.021
L1 N3 2 12u
.ends 1280_744770112_12u
*******
.subckt 1280_744770115_15u 1 2
Rp 1 2 13382
Cp 1 2 10p
Rs 1 N3 0.024
L1 N3 2 15u
.ends 1280_744770115_15u
*******
.subckt 1280_744770118_18u 1 2
Rp 1 2 14300
Cp 1 2 8.16p
Rs 1 N3 0.032
L1 N3 2 18u
.ends 1280_744770118_18u
*******
.subckt 1280_744770122_22u 1 2
Rp 1 2 18758
Cp 1 2 13p
Rs 1 N3 0.033
L1 N3 2 22u
.ends 1280_744770122_22u
*******
.subckt 1280_744770127_27u 1 2
Rp 1 2 16711
Cp 1 2 11.74p
Rs 1 N3 0.035
L1 N3 2 27u
.ends 1280_744770127_27u
*******
.subckt 1280_744770133_33u 1 2
Rp 1 2 22393
Cp 1 2 10p
Rs 1 N3 0.047
L1 N3 2 33u
.ends 1280_744770133_33u
*******
.subckt 1280_744770139_39u 1 2
Rp 1 2 41740
Cp 1 2 14.78p
Rs 1 N3 0.053
L1 N3 2 39u
.ends 1280_744770139_39u
*******
.subckt 1280_744770147_47u 1 2
Rp 1 2 32541
Cp 1 2 11.18p
Rs 1 N3 0.076
L1 N3 2 47u
.ends 1280_744770147_47u
*******
.subckt 1280_744770156_56u 1 2
Rp 1 2 39178
Cp 1 2 16.332p
Rs 1 N3 0.085
L1 N3 2 56u
.ends 1280_744770156_56u
*******
.subckt 1280_744770168_68u 1 2
Rp 1 2 36403
Cp 1 2 11.588p
Rs 1 N3 0.09
L1 N3 2 68u
.ends 1280_744770168_68u
*******
.subckt 1280_744770182_82u 1 2
Rp 1 2 51180
Cp 1 2 11.97p
Rs 1 N3 0.086
L1 N3 2 82u
.ends 1280_744770182_82u
*******
.subckt 1280_74477020_100u 1 2
Rp 1 2 56200
Cp 1 2 14.13p
Rs 1 N3 0.102
L1 N3 2 100u
.ends 1280_74477020_100u
*******
.subckt 1280_744770215_150u 1 2
Rp 1 2 75110
Cp 1 2 15.31p
Rs 1 N3 0.136
L1 N3 2 150u
.ends 1280_744770215_150u
*******
.subckt 1280_744770218_180u 1 2
Rp 1 2 78230
Cp 1 2 14.37p
Rs 1 N3 0.188
L1 N3 2 180u
.ends 1280_744770218_180u
*******
.subckt 1280_744770222_220u 1 2
Rp 1 2 83110
Cp 1 2 14.6p
Rs 1 N3 0.247
L1 N3 2 220u
.ends 1280_744770222_220u
*******
.subckt 1280_744770233_330u 1 2
Rp 1 2 118780
Cp 1 2 14.34p
Rs 1 N3 0.349
L1 N3 2 330u
.ends 1280_744770233_330u
*******
.subckt 1280_744770247_470u 1 2
Rp 1 2 139950
Cp 1 2 13.81p
Rs 1 N3 0.496
L1 N3 2 470u
.ends 1280_744770247_470u
*******
.subckt 1280_744770256_560u 1 2
Rp 1 2 118810
Cp 1 2 14.14p
Rs 1 N3 0.593
L1 N3 2 560u
.ends 1280_744770256_560u
*******
.subckt 1280_744770268_680u 1 2
Rp 1 2 127010
Cp 1 2 15.3p
Rs 1 N3 0.84
L1 N3 2 680u
.ends 1280_744770268_680u
*******
.subckt 1280_744770282_820u 1 2
Rp 1 2 132610
Cp 1 2 17.04p
Rs 1 N3 0.936
L1 N3 2 820u
.ends 1280_744770282_820u
*******
.subckt 1280_74477030_1m 1 2
Rp 1 2 196040
Cp 1 2 15.02p
Rs 1 N3 1.04
L1 N3 2 1000u
.ends 1280_74477030_1m
*******
.subckt 6033_7447785001_1u 1 2
Rp 1 2 2383
Cp 1 2 0.95p
Rs 1 N3 0.031
L1 N3 2 1u
.ends 6033_7447785001_1u
*******
.subckt 6033_7447785002_2.2u 1 2
Rp 1 2 4190
Cp 1 2 2.35p
Rs 1 N3 0.043
L1 N3 2 2.2u
.ends 6033_7447785002_2.2u
*******
.subckt 6033_7447785003_3.3u 1 2
Rp 1 2 5264
Cp 1 2 2.6p
Rs 1 N3 0.043
L1 N3 2 3.3u
.ends 6033_7447785003_3.3u
*******
.subckt 6033_7447785004_4.7u 1 2
Rp 1 2 7142
Cp 1 2 1.97p
Rs 1 N3 0.06
L1 N3 2 4.7u
.ends 6033_7447785004_4.7u
*******
.subckt 6033_7447785006_6.8u 1 2
Rp 1 2 9100
Cp 1 2 2.17p
Rs 1 N3 0.079
L1 N3 2 6.8u
.ends 6033_7447785006_6.8u
*******
.subckt 6033_744778510_10u 1 2
Rp 1 2 11979
Cp 1 2 2.62p
Rs 1 N3 0.1
L1 N3 2 10u
.ends 6033_744778510_10u
*******
.subckt 6033_7447785115_15u 1 2
Rp 1 2 16819
Cp 1 2 2.71p
Rs 1 N3 0.165
L1 N3 2 15u
.ends 6033_7447785115_15u
*******
.subckt 6033_7447785122_22u 1 2
Rp 1 2 15910
Cp 1 2 3.64p
Rs 1 N3 0.21
L1 N3 2 22u
.ends 6033_7447785122_22u
*******
.subckt 6033_7447785147_47u 1 2
Rp 1 2 33164
Cp 1 2 3.58p
Rs 1 N3 0.5
L1 N3 2 47u
.ends 6033_7447785147_47u
*******
.subckt 6033_744778520_100u 1 2
Rp 1 2 44777
Cp 1 2 3.93p
Rs 1 N3 0.95
L1 N3 2 100u
.ends 6033_744778520_100u
*******
.subckt 6050_7447786001_1u 1 2
Rp 1 2 2179
Cp 1 2 0.743p
Rs 1 N3 0.028
L1 N3 2 1u
.ends 6050_7447786001_1u
*******
.subckt 6050_7447786002_2.2u 1 2
Rp 1 2 6899
Cp 1 2 2.04p
Rs 1 N3 0.04
L1 N3 2 2.2u
.ends 6050_7447786002_2.2u
*******
.subckt 6050_7447786004_4.7u 1 2
Rp 1 2 6899
Cp 1 2 2.04p
Rs 1 N3 0.057
L1 N3 2 4.7u
.ends 6050_7447786004_4.7u
*******
.subckt 6050_7447786006_6.8u 1 2
Rp 1 2 9866
Cp 1 2 1.4p
Rs 1 N3 0.062
L1 N3 2 6.8u
.ends 6050_7447786006_6.8u
*******
.subckt 6050_7447786008_8.2u 1 2
Rp 1 2 10548
Cp 1 2 2.96p
Rs 1 N3 0.066
L1 N3 2 8.2u
.ends 6050_7447786008_8.2u
*******
.subckt 6050_744778610_10u 1 2
Rp 1 2 10910
Cp 1 2 2.85p
Rs 1 N3 0.074
L1 N3 2 10u
.ends 6050_744778610_10u
*******
.subckt 6050_7447786122_22u 1 2
Rp 1 2 17352
Cp 1 2 4.71p
Rs 1 N3 0.098
L1 N3 2 22u
.ends 6050_7447786122_22u
*******
.subckt 6050_7447786147_47u 1 2
Rp 1 2 35360
Cp 1 2 4.98p
Rs 1 N3 0.26
L1 N3 2 47u
.ends 6050_7447786147_47u
*******
.subckt 7332_744778005_0.54u 1 2
Rp 1 2 530
Cp 1 2 1.5p
Rs 1 N3 0.0072
L1 N3 2 0.54u
.ends 7332_744778005_0.54u
*******
.subckt 7332_744778001_1u 1 2
Rp 1 2 1637
Cp 1 2 3p
Rs 1 N3 0.009
L1 N3 2 1u
.ends 7332_744778001_1u
*******
.subckt 7332_7447789001_1u 1 2
Rp 1 2 1637
Cp 1 2 3p
Rs 1 N3 0.01
L1 N3 2 1u
.ends 7332_7447789001_1u
*******
.subckt 7332_744778002_2.2u 1 2
Rp 1 2 2577
Cp 1 2 3.79p
Rs 1 N3 0.014
L1 N3 2 2.2u
.ends 7332_744778002_2.2u
*******
.subckt 7332_744778003_3.3u 1 2
Rp 1 2 4719
Cp 1 2 2.789p
Rs 1 N3 0.024
L1 N3 2 3.3u
.ends 7332_744778003_3.3u
*******
.subckt 7332_7447789002_2.2u 1 2
Rp 1 2 2577
Cp 1 2 3.79p
Rs 1 N3 0.019
L1 N3 2 2.2u
.ends 7332_7447789002_2.2u
*******
.subckt 7332_744778004_4.7u 1 2
Rp 1 2 5905
Cp 1 2 3.85p
Rs 1 N3 0.042
L1 N3 2 4.7u
.ends 7332_744778004_4.7u
*******
.subckt 7332_7447789003_3.3u 1 2
Rp 1 2 4719
Cp 1 2 2.789p
Rs 1 N3 0.024
L1 N3 2 3.3u
.ends 7332_7447789003_3.3u
*******
.subckt 7332_74477810_10u 1 2
Rp 1 2 9154
Cp 1 2 3.77p
Rs 1 N3 0.068
L1 N3 2 10u
.ends 7332_74477810_10u
*******
.subckt 7332_7447789004_4.7u 1 2
Rp 1 2 5905
Cp 1 2 3.85p
Rs 1 N3 0.033
L1 N3 2 4.7u
.ends 7332_7447789004_4.7u
*******
.subckt 7332_744778112_12u 1 2
Rp 1 2 12835
Cp 1 2 4.26p
Rs 1 N3 0.076
L1 N3 2 12u
.ends 7332_744778112_12u
*******
.subckt 7332_7447789006_6.8u 1 2
Rp 1 2 8193
Cp 1 2 4.41p
Rs 1 N3 0.0415
L1 N3 2 6.8u
.ends 7332_7447789006_6.8u
*******
.subckt 7332_744778115_15u 1 2
Rp 1 2 15535
Cp 1 2 3.258p
Rs 1 N3 0.1
L1 N3 2 15u
.ends 7332_744778115_15u
*******
.subckt 7332_744778118_18u 1 2
Rp 1 2 17269
Cp 1 2 3.432p
Rs 1 N3 0.114
L1 N3 2 18u
.ends 7332_744778118_18u
*******
.subckt 7332_744778122_22u 1 2
Rp 1 2 15173
Cp 1 2 4.9p
Rs 1 N3 0.119
L1 N3 2 22u
.ends 7332_744778122_22u
*******
.subckt 7332_744778910_10u 1 2
Rp 1 2 9154
Cp 1 2 3.77p
Rs 1 N3 0.064
L1 N3 2 10u
.ends 7332_744778910_10u
*******
.subckt 7332_744778127_27u 1 2
Rp 1 2 20890
Cp 1 2 4.1p
Rs 1 N3 0.14
L1 N3 2 27u
.ends 7332_744778127_27u
*******
.subckt 7332_744778133_33u 1 2
Rp 1 2 17537
Cp 1 2 4.1p
Rs 1 N3 0.153
L1 N3 2 33u
.ends 7332_744778133_33u
*******
.subckt 7332_7447789112_12u 1 2
Rp 1 2 12835
Cp 1 2 4.26p
Rs 1 N3 0.076
L1 N3 2 12u
.ends 7332_7447789112_12u
*******
.subckt 7332_744778139_39u 1 2
Rp 1 2 24951
Cp 1 2 4.248p
Rs 1 N3 0.214
L1 N3 2 39u
.ends 7332_744778139_39u
*******
.subckt 7332_744778147_47u 1 2
Rp 1 2 28019
Cp 1 2 4.165p
Rs 1 N3 0.315
L1 N3 2 47u
.ends 7332_744778147_47u
*******
.subckt 7332_7447789115_15u 1 2
Rp 1 2 15535
Cp 1 2 3.258p
Rs 1 N3 0.1
L1 N3 2 15u
.ends 7332_7447789115_15u
*******
.subckt 7332_7447789118_18u 1 2
Rp 1 2 17269
Cp 1 2 3.432p
Rs 1 N3 0.114
L1 N3 2 18u
.ends 7332_7447789118_18u
*******
.subckt 7332_744778156_56u 1 2
Rp 1 2 39411
Cp 1 2 4.08p
Rs 1 N3 0.322
L1 N3 2 56u
.ends 7332_744778156_56u
*******
.subckt 7332_744778168_68u 1 2
Rp 1 2 73748
Cp 1 2 4.137p
Rs 1 N3 0.417
L1 N3 2 68u
.ends 7332_744778168_68u
*******
.subckt 7332_7447789122_22u 1 2
Rp 1 2 15173
Cp 1 2 4.9p
Rs 1 N3 0.119
L1 N3 2 22u
.ends 7332_7447789122_22u
*******
.subckt 7332_744778182_82u 1 2
Rp 1 2 39427
Cp 1 2 4.33p
Rs 1 N3 0.479
L1 N3 2 82u
.ends 7332_744778182_82u
*******
.subckt 7332_74477820_100u 1 2
Rp 1 2 53950
Cp 1 2 2.84p
Rs 1 N3 0.585
L1 N3 2 100u
.ends 7332_74477820_100u
*******
.subckt 7332_7447789127_27u 1 2
Rp 1 2 20890
Cp 1 2 4.1p
Rs 1 N3 0.13
L1 N3 2 27u
.ends 7332_7447789127_27u
*******
.subckt 7332_744778212_120u 1 2
Rp 1 2 40602
Cp 1 2 5p
Rs 1 N3 0.634
L1 N3 2 120u
.ends 7332_744778212_120u
*******
.subckt 7332_7447789133_33u 1 2
Rp 1 2 17537
Cp 1 2 4.1p
Rs 1 N3 0.153
L1 N3 2 33u
.ends 7332_7447789133_33u
*******
.subckt 7332_744778215_150u 1 2
Rp 1 2 59920
Cp 1 2 4.77p
Rs 1 N3 0.72
L1 N3 2 150u
.ends 7332_744778215_150u
*******
.subckt 7332_7447789139_39u 1 2
Rp 1 2 24951
Cp 1 2 4.248p
Rs 1 N3 0.209
L1 N3 2 39u
.ends 7332_7447789139_39u
*******
.subckt 7332_744778218_180u 1 2
Rp 1 2 55218
Cp 1 2 3.927p
Rs 1 N3 0.96
L1 N3 2 180u
.ends 7332_744778218_180u
*******
.subckt 7332_744778222_220u 1 2
Rp 1 2 70150
Cp 1 2 4.72p
Rs 1 N3 1.22
L1 N3 2 220u
.ends 7332_744778222_220u
*******
.subckt 7332_7447789147_47u 1 2
Rp 1 2 28019
Cp 1 2 4.165p
Rs 1 N3 0.315
L1 N3 2 47u
.ends 7332_7447789147_47u
*******
.subckt 7332_744778270_270u 1 2
Rp 1 2 92100
Cp 1 2 3.72p
Rs 1 N3 1.44
L1 N3 2 270u
.ends 7332_744778270_270u
*******
.subckt 7332_7447789156_56u 1 2
Rp 1 2 39411
Cp 1 2 4.08p
Rs 1 N3 0.335
L1 N3 2 56u
.ends 7332_7447789156_56u
*******
.subckt 7332_744778233_330u 1 2
Rp 1 2 106550
Cp 1 2 4.28p
Rs 1 N3 2.28
L1 N3 2 330u
.ends 7332_744778233_330u
*******
.subckt 7332_744778239_390u 1 2
Rp 1 2 114520
Cp 1 2 4.79p
Rs 1 N3 2.49
L1 N3 2 390u
.ends 7332_744778239_390u
*******
.subckt 7332_7447789168_68u 1 2
Rp 1 2 73748
Cp 1 2 4.137p
Rs 1 N3 0.427
L1 N3 2 68u
.ends 7332_7447789168_68u
*******
.subckt 7332_74477824_470u 1 2
Rp 1 2 129110
Cp 1 2 4.525p
Rs 1 N3 2.6
L1 N3 2 470u
.ends 7332_74477824_470u
*******
.subckt 7332_7447789182_82u 1 2
Rp 1 2 39427
Cp 1 2 4.33p
Rs 1 N3 0.47
L1 N3 2 82u
.ends 7332_7447789182_82u
*******
.subckt 7332_744778920_100u 1 2
Rp 1 2 53950
Cp 1 2 2.84p
Rs 1 N3 0.585
L1 N3 2 100u
.ends 7332_744778920_100u
*******
.subckt 7332_74477825_560u 1 2
Rp 1 2 104080
Cp 1 2 4.84p
Rs 1 N3 3
L1 N3 2 560u
.ends 7332_74477825_560u
*******
.subckt 7332_74477826_680u 1 2
Rp 1 2 118510
Cp 1 2 4p
Rs 1 N3 4.5
L1 N3 2 680u
.ends 7332_74477826_680u
*******
.subckt 7332_74477828_820u 1 2
Rp 1 2 192700
Cp 1 2 5.59p
Rs 1 N3 5.07
L1 N3 2 820u
.ends 7332_74477828_820u
*******
.subckt 7332_7447789212_120u 1 2
Rp 1 2 40602
Cp 1 2 5p
Rs 1 N3 0.563
L1 N3 2 120u
.ends 7332_7447789212_120u
*******
.subckt 7332_7447783015_1.5u 1 2
Rp 1 2 1060
Cp 1 2 3.397p
Rs 1 N3 0.012
L1 N3 2 1.5u
.ends 7332_7447783015_1.5u
*******
.subckt 7332_7447789215_150u 1 2
Rp 1 2 59920
Cp 1 2 4.77p
Rs 1 N3 0.72
L1 N3 2 150u
.ends 7332_7447789215_150u
*******
.subckt 7332_7447783022_2.2u 1 2
Rp 1 2 1644
Cp 1 2 3.131p
Rs 1 N3 0.0155
L1 N3 2 2.2u
.ends 7332_7447783022_2.2u
*******
.subckt 7332_7447789218_180u 1 2
Rp 1 2 55218
Cp 1 2 3.927p
Rs 1 N3 0.96
L1 N3 2 180u
.ends 7332_7447789218_180u
*******
.subckt 7332_7447783033_3.3u 1 2
Rp 1 2 2339
Cp 1 2 3.477p
Rs 1 N3 0.018
L1 N3 2 3.3u
.ends 7332_7447783033_3.3u
*******
.subckt 7332_7447783047_4.7u 1 2
Rp 1 2 4208
Cp 1 2 3.56p
Rs 1 N3 0.027
L1 N3 2 4.7u
.ends 7332_7447783047_4.7u
*******
.subckt 7332_7447789222_220u 1 2
Rp 1 2 70150
Cp 1 2 4.72p
Rs 1 N3 1.35
L1 N3 2 220u
.ends 7332_7447789222_220u
*******
.subckt 7332_7447783068_6.8u 1 2
Rp 1 2 5309
Cp 1 2 3.232p
Rs 1 N3 0.033
L1 N3 2 6.8u
.ends 7332_7447783068_6.8u
*******
.subckt 7332_7447783100_10u 1 2
Rp 1 2 8092
Cp 1 2 2.937p
Rs 1 N3 0.056
L1 N3 2 10u
.ends 7332_7447783100_10u
*******
.subckt 7332_7447789270_270u 1 2
Rp 1 2 92100
Cp 1 2 3.72p
Rs 1 N3 1.47
L1 N3 2 270u
.ends 7332_7447789270_270u
*******
.subckt 7332_7447783101_100u 1 2
Rp 1 2 59499
Cp 1 2 4.267p
Rs 1 N3 0.39
L1 N3 2 100u
.ends 7332_7447783101_100u
*******
.subckt 7332_7447783102_1m 1 2
Rp 1 2 226939
Cp 1 2 5.498p
Rs 1 N3 4
L1 N3 2 1000u
.ends 7332_7447783102_1m
*******
.subckt 7332_7447789233_330u 1 2
Rp 1 2 106550
Cp 1 2 4.28p
Rs 1 N3 2.28
L1 N3 2 330u
.ends 7332_7447789233_330u
*******
.subckt 7332_7447783150_15u 1 2
Rp 1 2 12813
Cp 1 2 3.463p
Rs 1 N3 0.068
L1 N3 2 15u
.ends 7332_7447783150_15u
*******
.subckt 7332_7447789239_390u 1 2
Rp 1 2 114520
Cp 1 2 4.79p
Rs 1 N3 2.49
L1 N3 2 390u
.ends 7332_7447789239_390u
*******
.subckt 7332_7447783151_150u 1 2
Rp 1 2 80323
Cp 1 2 4.449p
Rs 1 N3 0.63
L1 N3 2 150u
.ends 7332_7447783151_150u
*******
.subckt 7332_744778924_470u 1 2
Rp 1 2 129110
Cp 1 2 4.525p
Rs 1 N3 2.6
L1 N3 2 470u
.ends 7332_744778924_470u
*******
.subckt 7332_7447783220_22u 1 2
Rp 1 2 18288
Cp 1 2 3.927p
Rs 1 N3 0.09
L1 N3 2 22u
.ends 7332_7447783220_22u
*******
.subckt 7332_7447783221_220u 1 2
Rp 1 2 97034
Cp 1 2 4.72p
Rs 1 N3 0.87
L1 N3 2 220u
.ends 7332_7447783221_220u
*******
.subckt 7332_7447783330_33u 1 2
Rp 1 2 26459
Cp 1 2 4.227p
Rs 1 N3 0.138
L1 N3 2 33u
.ends 7332_7447783330_33u
*******
.subckt 7332_744778925_560u 1 2
Rp 1 2 104080
Cp 1 2 4.84p
Rs 1 N3 3
L1 N3 2 560u
.ends 7332_744778925_560u
*******
.subckt 7332_7447783331_330u 1 2
Rp 1 2 118446
Cp 1 2 5.005p
Rs 1 N3 1.24
L1 N3 2 330u
.ends 7332_7447783331_330u
*******
.subckt 7332_744778926_680u 1 2
Rp 1 2 118510
Cp 1 2 4p
Rs 1 N3 4.5
L1 N3 2 680u
.ends 7332_744778926_680u
*******
.subckt 7332_7447783470_47u 1 2
Rp 1 2 34357
Cp 1 2 4.3p
Rs 1 N3 0.18
L1 N3 2 47u
.ends 7332_7447783470_47u
*******
.subckt 7332_7447783471_470u 1 2
Rp 1 2 153394
Cp 1 2 5.1p
Rs 1 N3 1.78
L1 N3 2 470u
.ends 7332_7447783471_470u
*******
.subckt 7332_744778928_820u 1 2
Rp 1 2 192700
Cp 1 2 5.59p
Rs 1 N3 4.99
L1 N3 2 820u
.ends 7332_744778928_820u
*******
.subckt 7332_744778930_1m 1 2
Rp 1 2 186460
Cp 1 2 5.03p
Rs 1 N3 5.57
L1 N3 2 1000u
.ends 7332_744778930_1m
*******
.subckt 7332_7447783680_68u 1 2
Rp 1 2 47333
Cp 1 2 4.393p
Rs 1 N3 0.26
L1 N3 2 68u
.ends 7332_7447783680_68u
*******
.subckt 7332_7447783681_680u 1 2
Rp 1 2 174162
Cp 1 2 5.219p
Rs 1 N3 2.52
L1 N3 2 680u
.ends 7332_7447783681_680u
*******
.subckt 7332_74477830_1m 1 2
Rp 1 2 186460
Cp 1 2 5.03p
Rs 1 N3 5.57
L1 N3 2 1000u
.ends 7332_74477830_1m
*******
.subckt 7345_744777001_1u 1 2
Rp 1 2 1637
Cp 1 2 3p
Rs 1 N3 0.0084
L1 N3 2 1u
.ends 7345_744777001_1u
*******
.subckt 7345_744777002_2.2u 1 2
Rp 1 2 2577
Cp 1 2 3.79p
Rs 1 N3 0.013
L1 N3 2 2.2u
.ends 7345_744777002_2.2u
*******
.subckt 7345_744777003_3.3u 1 2
Rp 1 2 4719
Cp 1 2 2.789p
Rs 1 N3 0.025
L1 N3 2 3.3u
.ends 7345_744777003_3.3u
*******
.subckt 7345_744777004_4.7u 1 2
Rp 1 2 5905
Cp 1 2 3.85p
Rs 1 N3 0.025
L1 N3 2 4.7u
.ends 7345_744777004_4.7u
*******
.subckt 7345_74477710_10u 1 2
Rp 1 2 9154
Cp 1 2 3.77p
Rs 1 N3 0.045
L1 N3 2 10u
.ends 7345_74477710_10u
*******
.subckt 7345_744777112_12u 1 2
Rp 1 2 12835
Cp 1 2 4.26p
Rs 1 N3 0.054
L1 N3 2 12u
.ends 7345_744777112_12u
*******
.subckt 7345_744777115_15u 1 2
Rp 1 2 15535
Cp 1 2 3.258p
Rs 1 N3 0.07
L1 N3 2 15u
.ends 7345_744777115_15u
*******
.subckt 7345_744777118_18u 1 2
Rp 1 2 17269
Cp 1 2 3.432p
Rs 1 N3 0.08
L1 N3 2 18u
.ends 7345_744777118_18u
*******
.subckt 7345_744777122_22u 1 2
Rp 1 2 15173
Cp 1 2 4.9p
Rs 1 N3 0.09
L1 N3 2 22u
.ends 7345_744777122_22u
*******
.subckt 7345_744777127_27u 1 2
Rp 1 2 20890
Cp 1 2 4.1p
Rs 1 N3 0.1172
L1 N3 2 27u
.ends 7345_744777127_27u
*******
.subckt 7345_744777133_33u 1 2
Rp 1 2 17537
Cp 1 2 4.1p
Rs 1 N3 0.14
L1 N3 2 33u
.ends 7345_744777133_33u
*******
.subckt 7345_744777139_39u 1 2
Rp 1 2 24951
Cp 1 2 4.248p
Rs 1 N3 0.145
L1 N3 2 39u
.ends 7345_744777139_39u
*******
.subckt 7345_744777147_47u 1 2
Rp 1 2 28019
Cp 1 2 4.165p
Rs 1 N3 0.17
L1 N3 2 47u
.ends 7345_744777147_47u
*******
.subckt 7345_744777156_56u 1 2
Rp 1 2 39411
Cp 1 2 4.08p
Rs 1 N3 0.207
L1 N3 2 56u
.ends 7345_744777156_56u
*******
.subckt 7345_744777168_68u 1 2
Rp 1 2 73748
Cp 1 2 4.137p
Rs 1 N3 0.239
L1 N3 2 68u
.ends 7345_744777168_68u
*******
.subckt 7345_744777182_82u 1 2
Rp 1 2 39427
Cp 1 2 4.33p
Rs 1 N3 0.257
L1 N3 2 82u
.ends 7345_744777182_82u
*******
.subckt 7345_74477720_100u 1 2
Rp 1 2 53950
Cp 1 2 2.84p
Rs 1 N3 0.29
L1 N3 2 100u
.ends 7345_74477720_100u
*******