*******************************************************
* Manufacturer: 		Wurth Elektronik
* Kinds:			High Voltage SMD Power Inductor
* Matchcode: 		WE-PD2 HV
* Library Type:		LTspice
* Version: 		rev18a
* Created/modified by:	Fredo Huang
* Date and Time   :		2018-01-03
* Team: 			eiSos EDA Service
* Contact: 		libraries@we-online.com
*******************************************************
.subckt 7850_768775256_560u 1 2
Rp 1 2 135747
Cp 1 2 6.306p
Rs 1 N3 1.77
L1 N3 2 560u
.ends 7850_768775256_560u
*******
.subckt 7850_768775268_680u 1 2
Rp 1 2 178435
Cp 1 2 4.962p
Rs 1 N3 2.04
L1 N3 2 680u
.ends 7850_768775268_680u
*******
.subckt 7850_768775282_820u 1 2
Rp 1 2 150783
Cp 1 2 4.814p
Rs 1 N3 2.35
L1 N3 2 820u
.ends 7850_768775282_820u
*******
.subckt 7850_76877530_1m 1 2
Rp 1 2 169625
Cp 1 2 4.748p
Rs 1 N3 2.78
L1 N3 2 1000u
.ends 7850_76877530_1m
*******
.subckt 7850_768775312_1.2m 1 2
Rp 1 2 228953
Cp 1 2 5.159p
Rs 1 N3 3.77
L1 N3 2 1200u
.ends 7850_768775312_1.2m
*******
.subckt 7850_768775322_2.2m 1 2
Rp 1 2 225324
Cp 1 2 5.246p
Rs 1 N3 6
L1 N3 2 2200u
.ends 7850_768775322_2.2m
*******
.subckt 1054_768776312_1.2m 1 2
Rp 1 2 165814
Cp 1 2 5.449p
Rs 1 N3 2.48
L1 N3 2 1200u
.ends 1054_768776312_1.2m
*******
.subckt WE-PD2HV_1054_76877630_1m 1 2
Rp 1 2 230.366
Cp 1 2 4.954p
Rs 1 N3 2.6
L1 N3 2 1000u
.ends WE-PD2HV_1054_76877630_1m
*******
.subckt WE-PD2HV_1054_768776322_2.2m 1 2
Rp 1 2 275.669169519
Cp 1 2 5.33990012326p
Rs 1 N3 5.3
L1 N3 2 2200u
.ends WE-PD2HV_1054_768776322_2.2m
*******
