*******************************************************
* Manufacturer: 		Wurth Elektronik
* Kinds:			SMD Shielded Power Inductor
* Matchcode: 		WE-PD2SR
* Library Type:		LTspice
* Version: 		rev18a
* Created/modified by:	Fredo Huang
* Date and Time   :		2018-01-03
* Team: 			eiSos EDA Service
* Contact: 		libraries@we-online.com
*******************************************************
.subckt 7850_744787012_1.2u 1 2
Rp 1 2 1.568
Cp 1 2 1.422p
Rs 1 N3 0.0085
L1 N3 2 1.2u
.ends 7850_744787012_1.2u
*******
.subckt 7850_744787027_2.7u 1 2
Rp 1 2 3.203
Cp 1 2 2.323p
Rs 1 N3 0.0135
L1 N3 2 2.7u
.ends 7850_744787027_2.7u
*******
.subckt 7850_744787039_3.9u 1 2
Rp 1 2 4.293
Cp 1 2 2.593p
Rs 1 N3 0.0167
L1 N3 2 3.9u
.ends 7850_744787039_3.9u
*******
.subckt 7850_744787047_4.7u 1 2
Rp 1 2 5.726
Cp 1 2 1.795p
Rs 1 N3 0.0243
L1 N3 2 4.7u
.ends 7850_744787047_4.7u
*******
.subckt 7850_744787068_6.8u 1 2
Rp 1 2 6.952
Cp 1 2 3.116p
Rs 1 N3 0.027
L1 N3 2 6.8u
.ends 7850_744787068_6.8u
*******
.subckt 7850_744787082_8.2u 1 2
Rp 1 2 8.623
Cp 1 2 2.844p
Rs 1 N3 0.033
L1 N3 2 8.2u
.ends 7850_744787082_8.2u
*******
.subckt 7850_744787100_10u 1 2
Rp 1 2 10.358
Cp 1 2 3.805p
Rs 1 N3 0.0365
L1 N3 2 10u
.ends 7850_744787100_10u
*******
.subckt 7850_744787120_12u 1 2
Rp 1 2 12.034
Cp 1 2 4.079p
Rs 1 N3 0.045
L1 N3 2 12u
.ends 7850_744787120_12u
*******
.subckt 7850_744787150_15u 1 2
Rp 1 2 13.97
Cp 1 2 4.567p
Rs 1 N3 0.052
L1 N3 2 15u
.ends 7850_744787150_15u
*******
.subckt 7850_744787180_18u 1 2
Rp 1 2 15.65
Cp 1 2 6.131p
Rs 1 N3 0.067
L1 N3 2 18u
.ends 7850_744787180_18u
*******
.subckt 7850_744787220_22u 1 2
Rp 1 2 20.859
Cp 1 2 5.888p
Rs 1 N3 0.088
L1 N3 2 22u
.ends 7850_744787220_22u
*******
.subckt 7850_744787330_33u 1 2
Rp 1 2 29.973
Cp 1 2 6.004p
Rs 1 N3 0.137
L1 N3 2 33u
.ends 7850_744787330_33u
*******
.subckt 7850_744787470_47u 1 2
Rp 1 2 45.853
Cp 1 2 6.96p
Rs 1 N3 0.206
L1 N3 2 47u
.ends 7850_744787470_47u
*******
.subckt 7850_744787680_68u 1 2
Rp 1 2 65.838
Cp 1 2 6.621p
Rs 1 N3 0.246
L1 N3 2 68u
.ends 7850_744787680_68u
*******
.subckt 7850_744787820_82u 1 2
Rp 1 2 78.401
Cp 1 2 8.234p
Rs 1 N3 0.278
L1 N3 2 82u
.ends 7850_744787820_82u
*******
.subckt 7850_744787101_100u 1 2
Rp 1 2 92.925
Cp 1 2 7.965p
Rs 1 N3 0.396
L1 N3 2 100u
.ends 7850_744787101_100u
*******
.subckt 7850_744787121_120u 1 2
Rp 1 2 141.84
Cp 1 2 8.803p
Rs 1 N3 0.545
L1 N3 2 120u
.ends 7850_744787121_120u
*******
.subckt 7850_744787151_150u 1 2
Rp 1 2 106.676
Cp 1 2 10.254p
Rs 1 N3 0.61
L1 N3 2 150u
.ends 7850_744787151_150u
*******
.subckt 7850_744787181_180u 1 2
Rp 1 2 139.843
Cp 1 2 7.439p
Rs 1 N3 0.673
L1 N3 2 180u
.ends 7850_744787181_180u
*******
.subckt 7850_744787221_220u 1 2
Rp 1 2 195.324
Cp 1 2 7.425p
Rs 1 N3 0.743
L1 N3 2 220u
.ends 7850_744787221_220u
*******
