**************************************************
* Manufacturer: 		Wurth Elektronik
* Kinds:			SMD Power Inductor
* Matchcode: 		WE-SPC
* Library Type:		LTspice
* Version: 		rev18a
* Created/modified by:	Fredo Huang
* Date and Time   :		2018-01-03
* Team: 			eiSos EDA Service
* Contact: 		libraries@we-online.com
**************************************************
.subckt 4818_744089410022_0.22u 1 2
Rp 1 2 301.5
Cp 1 2 1.863p
Rs 1 N3 0.015
L1 N3 2 0.22u
.ends 4818_744089410022_0.22u
*******
.subckt 4818_744089410043_0.43u 1 2
Rp 1 2 618.6
Cp 1 2 2.21p
Rs 1 N3 0.0176
L1 N3 2 0.43u
.ends 4818_744089410043_0.43u
*******
.subckt 4818_744089410068_0.68u 1 2
Rp 1 2 980
Cp 1 2 2.635p
Rs 1 N3 0.0221
L1 N3 2 0.68u
.ends 4818_744089410068_0.68u
*******
.subckt 4818_74408941010_1u 1 2
Rp 1 2 1431.9
Cp 1 2 2.792p
Rs 1 N3 0.0295
L1 N3 2 1u
.ends 4818_74408941010_1u
*******
.subckt 4818_74408941022_2.2u 1 2
Rp 1 2 3588
Cp 1 2 2.763p
Rs 1 N3 0.06608
L1 N3 2 2.2u
.ends 4818_74408941022_2.2u
*******
.subckt 4818_74408941029_2.9u 1 2
Rp 1 2 4695
Cp 1 2 2.891p
Rs 1 N3 0.101
L1 N3 2 2.9u
.ends 4818_74408941029_2.9u
*******
.subckt 4818_74408941035_3.5u 1 2
Rp 1 2 5482
Cp 1 2 2.74p
Rs 1 N3 0.113
L1 N3 2 3.5u
.ends 4818_74408941035_3.5u
*******
.subckt 4818_74408941050_5u 1 2
Rp 1 2 7205
Cp 1 2 2.989p
Rs 1 N3 0.14
L1 N3 2 5u
.ends 4818_74408941050_5u
*******
.subckt 4818_74408941068_6.8u 1 2
Rp 1 2 10249
Cp 1 2 2.678p
Rs 1 N3 0.19
L1 N3 2 6.8u
.ends 4818_74408941068_6.8u
*******
.subckt 4818_74408941078_7.8u 1 2
Rp 1 2 11131
Cp 1 2 2.833p
Rs 1 N3 0.23
L1 N3 2 7.8u
.ends 4818_74408941078_7.8u
*******
.subckt 4818_74408941089_8.9u 1 2
Rp 1 2 12687
Cp 1 2 2.809p
Rs 1 N3 0.24
L1 N3 2 8.9u
.ends 4818_74408941089_8.9u
*******
.subckt 4818_74408941100_10u 1 2
Rp 1 2 11054
Cp 1 2 2.724p
Rs 1 N3 0.248
L1 N3 2 10u
.ends 4818_74408941100_10u
*******
.subckt 4818_74408941150_15u 1 2
Rp 1 2 18941
Cp 1 2 3.059p
Rs 1 N3 0.43
L1 N3 2 15u
.ends 4818_74408941150_15u
*******
.subckt 4818_74408941220_22u 1 2
Rp 1 2 26285
Cp 1 2 3.019p
Rs 1 N3 0.549
L1 N3 2 22u
.ends 4818_74408941220_22u
*******
.subckt 4818_74408941330_33u 1 2
Rp 1 2 36100
Cp 1 2 3.272p
Rs 1 N3 1.015
L1 N3 2 33u
.ends 4818_74408941330_33u
*******
.subckt 4818_74408941470_47u 1 2
Rp 1 2 33497
Cp 1 2 2.838p
Rs 1 N3 1.133
L1 N3 2 47u
.ends 4818_74408941470_47u
*******
.subckt 4828_744089420022_0.22u 1 2
Rp 1 2 244
Cp 1 2 2.12p
Rs 1 N3 0.0122
L1 N3 2 0.22u
.ends 4828_744089420022_0.22u
*******
.subckt 4828_744089420039_0.39u 1 2
Rp 1 2 427
Cp 1 2 2.358p
Rs 1 N3 0.015
L1 N3 2 0.39u
.ends 4828_744089420039_0.39u
*******
.subckt 4828_744089420056_0.56u 1 2
Rp 1 2 660
Cp 1 2 2.798p
Rs 1 N3 0.0156
L1 N3 2 0.56u
.ends 4828_744089420056_0.56u
*******
.subckt 4828_744089420082_0.82u 1 2
Rp 1 2 930
Cp 1 2 2.959p
Rs 1 N3 0.021
L1 N3 2 0.82u
.ends 4828_744089420082_0.82u
*******
.subckt 4828_74408942012_1.2u 1 2
Rp 1 2 1332
Cp 1 2 3.377p
Rs 1 N3 0.022
L1 N3 2 1.2u
.ends 4828_74408942012_1.2u
*******
.subckt 4828_74408942022_2.2u 1 2
Rp 1 2 2591
Cp 1 2 3.822p
Rs 1 N3 0.038
L1 N3 2 2.2u
.ends 4828_74408942022_2.2u
*******
.subckt 4828_74408942033_3.3u 1 2
Rp 1 2 3423
Cp 1 2 4.029p
Rs 1 N3 0.0483
L1 N3 2 3.3u
.ends 4828_74408942033_3.3u
*******
.subckt 4828_74408942047_4.7u 1 2
Rp 1 2 4627
Cp 1 2 3.701p
Rs 1 N3 0.0868
L1 N3 2 4.7u
.ends 4828_74408942047_4.7u
*******
.subckt 4828_74408942068_6.8u 1 2
Rp 1 2 5635
Cp 1 2 4.417p
Rs 1 N3 0.11
L1 N3 2 6.8u
.ends 4828_74408942068_6.8u
*******
.subckt 4828_74408942082_8.2u 1 2
Rp 1 2 6080
Cp 1 2 4.587p
Rs 1 N3 0.113
L1 N3 2 8.2u
.ends 4828_74408942082_8.2u
*******
.subckt 4828_74408942100_10u 1 2
Rp 1 2 5100
Cp 1 2 4.914p
Rs 1 N3 0.125
L1 N3 2 10u
.ends 4828_74408942100_10u
*******
.subckt 4828_74408942150_15u 1 2
Rp 1 2 9799
Cp 1 2 4.709p
Rs 1 N3 0.207
L1 N3 2 15u
.ends 4828_74408942150_15u
*******
.subckt 4828_74408942220_22u 1 2
Rp 1 2 10827
Cp 1 2 5.053p
Rs 1 N3 0.3
L1 N3 2 22u
.ends 4828_74408942220_22u
*******
.subckt 4828_74408942330_33u 1 2
Rp 1 2 14921
Cp 1 2 5.118p
Rs 1 N3 0.424
L1 N3 2 33u
.ends 4828_74408942330_33u
*******
.subckt 4828_74408942470_47u 1 2
Rp 1 2 12539
Cp 1 2 6.043p
Rs 1 N3 0.515
L1 N3 2 47u
.ends 4828_74408942470_47u
*******
.subckt 4828_74408942560_56u 1 2
Rp 1 2 27609
Cp 1 2 5.111p
Rs 1 N3 0.78
L1 N3 2 56u
.ends 4828_74408942560_56u
*******
.subckt 4828_74408942680_68u 1 2
Rp 1 2 22596
Cp 1 2 6.075p
Rs 1 N3 0.864
L1 N3 2 68u
.ends 4828_74408942680_68u
*******
.subckt 4828_74408942820_82u 1 2
Rp 1 2 22460
Cp 1 2 5.682p
Rs 1 N3 0.94
L1 N3 2 82u
.ends 4828_74408942820_82u
*******
.subckt 4838_744089430022_0.22u 1 2
Rp 1 2 190
Cp 1 2 0.273p
Rs 1 N3 0.012
L1 N3 2 0.22u
.ends 4838_744089430022_0.22u
*******
.subckt 4838_744089430039_0.39u 1 2
Rp 1 2 310
Cp 1 2 1.8p
Rs 1 N3 0.0135
L1 N3 2 0.39u
.ends 4838_744089430039_0.39u
*******
.subckt 4838_744089430056_0.56u 1 2
Rp 1 2 446
Cp 1 2 2.01p
Rs 1 N3 0.015
L1 N3 2 0.56u
.ends 4838_744089430056_0.56u
*******
.subckt 4838_744089430082_0.82u 1 2
Rp 1 2 700
Cp 1 2 2.28p
Rs 1 N3 0.017
L1 N3 2 0.82u
.ends 4838_744089430082_0.82u
*******
.subckt 4838_74408943010_1u 1 2
Rp 1 2 968
Cp 1 2 2.46p
Rs 1 N3 0.019
L1 N3 2 1u
.ends 4838_74408943010_1u
*******
.subckt 4838_74408943022_2.2u 1 2
Rp 1 2 1820
Cp 1 2 1.65p
Rs 1 N3 0.026
L1 N3 2 2.2u
.ends 4838_74408943022_2.2u
*******
.subckt 4838_74408943033_3.3u 1 2
Rp 1 2 3147
Cp 1 2 3p
Rs 1 N3 0.031
L1 N3 2 3.3u
.ends 4838_74408943033_3.3u
*******
.subckt 4838_74408943047_4.7u 1 2
Rp 1 2 4381
Cp 1 2 3.73p
Rs 1 N3 0.045
L1 N3 2 4.7u
.ends 4838_74408943047_4.7u
*******
.subckt 4838_74408943068_6.8u 1 2
Rp 1 2 6785
Cp 1 2 3.36p
Rs 1 N3 0.051
L1 N3 2 6.8u
.ends 4838_74408943068_6.8u
*******
.subckt 4838_74408943082_8.2u 1 2
Rp 1 2 7275
Cp 1 2 3.7p
Rs 1 N3 0.07
L1 N3 2 8.2u
.ends 4838_74408943082_8.2u
*******
.subckt 4838_74408943100_10u 1 2
Rp 1 2 9380
Cp 1 2 3.24p
Rs 1 N3 0.082
L1 N3 2 10u
.ends 4838_74408943100_10u
*******
.subckt 4838_74408943150_15u 1 2
Rp 1 2 12080
Cp 1 2 3.37p
Rs 1 N3 0.118
L1 N3 2 15u
.ends 4838_74408943150_15u
*******
.subckt 4838_74408943220_22u 1 2
Rp 1 2 17402
Cp 1 2 3.22p
Rs 1 N3 0.185
L1 N3 2 22u
.ends 4838_74408943220_22u
*******
.subckt 4838_74408943330_33u 1 2
Rp 1 2 20970
Cp 1 2 5.54p
Rs 1 N3 0.259
L1 N3 2 33u
.ends 4838_74408943330_33u
*******
.subckt 4838_74408943470_47u 1 2
Rp 1 2 29460
Cp 1 2 5.24p
Rs 1 N3 0.305
L1 N3 2 47u
.ends 4838_74408943470_47u
*******
.subckt 4838_74408943560_56u 1 2
Rp 1 2 22330
Cp 1 2 3.74p
Rs 1 N3 0.418
L1 N3 2 56u
.ends 4838_74408943560_56u
*******
.subckt 4838_74408943680_68u 1 2
Rp 1 2 24666
Cp 1 2 4.48p
Rs 1 N3 0.608
L1 N3 2 68u
.ends 4838_74408943680_68u
*******
.subckt 4838_74408943820_82u 1 2
Rp 1 2 37479
Cp 1 2 5.25p
Rs 1 N3 0.689
L1 N3 2 82u
.ends 4838_74408943820_82u
*******
.subckt 4838_74408943101_100u 1 2
Rp 1 2 36357
Cp 1 2 6p
Rs 1 N3 0.77
L1 N3 2 100u
.ends 4838_74408943101_100u
*******
