***********************************************************
* Manufacturer: 		Wurth Elektronik
* Kinds:			Radial Leaded Wire Wound Inductor
* Matchcode: 		WE-TIF
* Library Type:		LTspice
* Version: 		rev18a
* Created/modified by:	Fredo Huang
* Date and Time   :		2018-01-03
* Team: 			eiSos EDA Service
* Contact: 		libraries@we-online.com
************************************************************
.subckt 1014_7447211101_100u 1 2
Rp 1 2 89778
Cp 1 2 15.395p
Rs 1 N3 0.105
L1 N3 2 100u
.ends 1014_7447211101_100u
*******
.subckt 1014_7447211221_220u 1 2
Rp 1 2 75000
Cp 1 2 19.188p
Rs 1 N3 0.22
L1 N3 2 220u
.ends 1014_7447211221_220u
*******
.subckt 1014_7447211331_330u 1 2
Rp 1 2 86000
Cp 1 2 16.1p
Rs 1 N3 0.32
L1 N3 2 330u
.ends 1014_7447211331_330u
*******
.subckt 1014_7447211471_470u 1 2
Rp 1 2 72600
Cp 1 2 15.36p
Rs 1 N3 0.46
L1 N3 2 470u
.ends 1014_7447211471_470u
*******
.subckt 1014_7447211681_680u 1 2
Rp 1 2 159600
Cp 1 2 17.36p
Rs 1 N3 0.66
L1 N3 2 680u
.ends 1014_7447211681_680u
*******
.subckt 1014_7447211102_1m 1 2
Rp 1 2 103196
Cp 1 2 16.803p
Rs 1 N3 0.97
L1 N3 2 1000u
.ends 1014_7447211102_1m
*******
.subckt 1014_7447211222_2.2m 1 2
Rp 1 2 148000
Cp 1 2 15.696p
Rs 1 N3 2.1
L1 N3 2 2200u
.ends 1014_7447211222_2.2m
*******
.subckt 1014_7447211332_3.3m 1 2
Rp 1 2 162000
Cp 1 2 16.46p
Rs 1 N3 3.1
L1 N3 2 3300u
.ends 1014_7447211332_3.3m
*******
.subckt 1014_7447211472_4.7m 1 2
Rp 1 2 365400
Cp 1 2 18.263p
Rs 1 N3 4.3
L1 N3 2 4700u
.ends 1014_7447211472_4.7m
*******
.subckt 1014_7447211682_6.8m 1 2
Rp 1 2 496000
Cp 1 2 16.768p
Rs 1 N3 6.3
L1 N3 2 6800u
.ends 1014_7447211682_6.8m
*******
.subckt 1014_7447211103_10m 1 2
Rp 1 2 559000
Cp 1 2 17.44p
Rs 1 N3 9.3
L1 N3 2 10000u
.ends 1014_7447211103_10m
*******
.subckt 1016_7447221101_100u 1 2
Rp 1 2 90000
Cp 1 2 14.22p
Rs 1 N3 0.08
L1 N3 2 100u
.ends 1016_7447221101_100u
*******
.subckt 1016_7447221221_220u 1 2
Rp 1 2 107000
Cp 1 2 17.64p
Rs 1 N3 0.175
L1 N3 2 220u
.ends 1016_7447221221_220u
*******
.subckt 1016_7447221331_330u 1 2
Rp 1 2 142600
Cp 1 2 17.7p
Rs 1 N3 0.265
L1 N3 2 330u
.ends 1016_7447221331_330u
*******
.subckt 1016_7447221471_470u 1 2
Rp 1 2 146173
Cp 1 2 17.02p
Rs 1 N3 0.37
L1 N3 2 470u
.ends 1016_7447221471_470u
*******
.subckt 1016_7447221681_680u 1 2
Rp 1 2 162461
Cp 1 2 18.84p
Rs 1 N3 0.56
L1 N3 2 680u
.ends 1016_7447221681_680u
*******
.subckt 1016_7447221102_1m 1 2
Rp 1 2 190000
Cp 1 2 20.02p
Rs 1 N3 0.82
L1 N3 2 1000u
.ends 1016_7447221102_1m
*******
.subckt 1016_7447221222_2.2m 1 2
Rp 1 2 220000
Cp 1 2 18.04p
Rs 1 N3 1.8
L1 N3 2 2200u
.ends 1016_7447221222_2.2m
*******
.subckt 1016_7447221332_3.3m 1 2
Rp 1 2 254000
Cp 1 2 18.12p
Rs 1 N3 2.7
L1 N3 2 3300u
.ends 1016_7447221332_3.3m
*******
.subckt 1016_7447221472_4.7m 1 2
Rp 1 2 340000
Cp 1 2 19.1p
Rs 1 N3 3.88
L1 N3 2 4700u
.ends 1016_7447221472_4.7m
*******
.subckt 1016_7447221682_6.8m 1 2
Rp 1 2 560000
Cp 1 2 19.3p
Rs 1 N3 5.7
L1 N3 2 6800u
.ends 1016_7447221682_6.8m
*******
.subckt 1016_7447221103_10m 1 2
Rp 1 2 610000
Cp 1 2 21p
Rs 1 N3 8.4
L1 N3 2 10000u
.ends 1016_7447221103_10m
*******
.subckt 1018_7447231101_100u 1 2
Rp 1 2 100400
Cp 1 2 17.24p
Rs 1 N3 0.072
L1 N3 2 100u
.ends 1018_7447231101_100u
*******
.subckt 1018_7447231221_220u 1 2
Rp 1 2 119000
Cp 1 2 21.96p
Rs 1 N3 0.155
L1 N3 2 220u
.ends 1018_7447231221_220u
*******
.subckt 1018_7447231331_330u 1 2
Rp 1 2 125000
Cp 1 2 20.46p
Rs 1 N3 0.23
L1 N3 2 330u
.ends 1018_7447231331_330u
*******
.subckt 1018_7447231471_470u 1 2
Rp 1 2 147000
Cp 1 2 19.62p
Rs 1 N3 0.325
L1 N3 2 470u
.ends 1018_7447231471_470u
*******
.subckt 1018_7447231681_680u 1 2
Rp 1 2 160000
Cp 1 2 23.5p
Rs 1 N3 0.48
L1 N3 2 680u
.ends 1018_7447231681_680u
*******
.subckt 1018_7447231102_1m 1 2
Rp 1 2 180281
Cp 1 2 21.68p
Rs 1 N3 0.72
L1 N3 2 1000u
.ends 1018_7447231102_1m
*******
.subckt 1018_7447231222_2.2m 1 2
Rp 1 2 213000
Cp 1 2 20.96p
Rs 1 N3 1.55
L1 N3 2 2200u
.ends 1018_7447231222_2.2m
*******
.subckt 1018_7447231332_3.3m 1 2
Rp 1 2 259324
Cp 1 2 22.72p
Rs 1 N3 2.3
L1 N3 2 3300u
.ends 1018_7447231332_3.3m
*******
.subckt 1018_7447231472_4.7m 1 2
Rp 1 2 376000
Cp 1 2 22.78p
Rs 1 N3 3.25
L1 N3 2 4700u
.ends 1018_7447231472_4.7m
*******
.subckt 1018_7447231682_6.8m 1 2
Rp 1 2 540416
Cp 1 2 24.3p
Rs 1 N3 4.8
L1 N3 2 6800u
.ends 1018_7447231682_6.8m
*******
.subckt 1018_7447231103_10m 1 2
Rp 1 2 802742
Cp 1 2 22.72p
Rs 1 N3 7.2
L1 N3 2 10000u
.ends 1018_7447231103_10m
*******
