***********************************************************
* Manufacturer: 		Wurth Elektronik
* Kinds:			Radial Leaded Wire Wound Inductor
* Matchcode: 		WE-TI HV
* Library Type:		LTspice
* Version: 		rev18a
* Created/modified by:	Fredo Huang
* Date and Time   :		2018-01-03
* Team: 			eiSos EDA Service
* Contact: 		libraries@we-online.com
************************************************************
.subckt 8095_768772102_1m 1 2
Rp 1 2 270157
Cp 1 2 8.289p
Rs 1 N3 1.7
L1 N3 2 1000u
.ends 8095_768772102_1m
*******
.subckt 8095_768772122_1.2m 1 2
Rp 1 2 302743
Cp 1 2 8.739p
Rs 1 N3 2.2
L1 N3 2 1200u
.ends 8095_768772122_1.2m
*******
.subckt 8095_768772152_1.5m 1 2
Rp 1 2 351045
Cp 1 2 8.707p
Rs 1 N3 2.6
L1 N3 2 1500u
.ends 8095_768772152_1.5m
*******
.subckt 8095_768772182_1.8m 1 2
Rp 1 2 308545
Cp 1 2 6.752p
Rs 1 N3 2.7
L1 N3 2 1800u
.ends 8095_768772182_1.8m
*******
.subckt 8095_768772221_220u 1 2
Rp 1 2 188768
Cp 1 2 8.443p
Rs 1 N3 0.5
L1 N3 2 220u
.ends 8095_768772221_220u
*******
.subckt 8095_768772222_2.2m 1 2
Rp 1 2 668092
Cp 1 2 7.866p
Rs 1 N3 3.9
L1 N3 2 2200u
.ends 8095_768772222_2.2m
*******
.subckt 8095_768772331_330u 1 2
Rp 1 2 237487
Cp 1 2 7.821p
Rs 1 N3 0.6
L1 N3 2 330u
.ends 8095_768772331_330u
*******
.subckt 8095_768772471_470u 1 2
Rp 1 2 262542
Cp 1 2 8.648p
Rs 1 N3 1.1
L1 N3 2 470u
.ends 8095_768772471_470u
*******
.subckt 8095_768772681_680u 1 2
Rp 1 2 233293
Cp 1 2 8.99p
Rs 1 N3 1.4
L1 N3 2 680u
.ends 8095_768772681_680u
*******
.subckt 8095_768772821_820u 1 2
Rp 1 2 334347
Cp 1 2 7.973p
Rs 1 N3 1.6
L1 N3 2 820u
.ends 8095_768772821_820u
*******
.subckt 8095_768772332_3.3m 1 2
Rp 1 2 1395.1
Cp 1 2 6.42p
Rs 1 N3 7.08
L1 N3 2 3300u
.ends 8095_768772332_3.3m
*******
