* ---------------------------------------------------------------------------
* The parameters in this model library were derived from:
*
*   Quartz-crystal timing accuracy
*   Electonic Design 2, January 19, 1976; pp. 74-79
*
* and:
*
*   Electronics Designers' Handbook, Second Edition
*   edited by L.J. Giacoletto
*   McGraw-Hill Book Co., 1977, pp. 16-16 to 16-31

* Example use:  X3 3 4 QZ32768

* Notes:
* 1) Temperature variation of resonant frequency for properly cut
*    crystals is quadratic.  The coefficient depends on the cut used
*    and is implemented in these subcircuits by giving the equivalent
*    inductor a temperature coefficient.  The AT cut is an exception,
*    and has a cubic temperature dependence which is not included in
*    these models.
* 2) The values of lqz, cs, and cp do not vary much from one crystal
*    to the next.  The value of rqz, however, can vary as much as a
*    factor of 2 up or down.  So the crystal's Q can vary over a
*    range of 4 to 1.
* 3) Parallel resonant crystals can be tuned slightly by attaching an
*    external capacitor in parallel with the crystal.  The crystal's
*    frequency is built assuming a value of the external capacitor,
*    called the "calibration capacitance".  Its value is noted in
*    the comment at the head of each parallel resonant crystal model.
*$
* - - - - - - - - - - - - - - - - - - - - - - - - - - - - - - - - - - - - - -
* 32768 hertz watch crystal, XY cut, series resonant, Q=81780
*
.subckt QZS32768 1 2
*
  lqz	1	11		4448.72259
  *model	 	ind (tc2 = 8.68e-8)
  cs	11	12	5.30279780e-015
  rqz	12	2	11.2k
  cp	1	2	1.84pf
.ends
*$
* - - - - - - - - - - - - - - - - - - - - - - - - - - - - - - - - - - - - - -
* 100khz frequency standard, DT cut, parallel resonant, Q=20000
*   calibration capacitance = 5pf
.subckt QZP100K 1 2
*
  lqz	1	11	 	588.873289
  *model	 	ind (tc2=3.5e-8)
  cs	11	12	4.30423941e-015
  rqz	12	2	18.5k
  cp	1	2	1.72169576e-012
.ends
*$
* - - - - - - - - - - - - - - - - - - - - - - - - - - - - - - - - - - - - - -
* 100khz frequency standard, DT cut, series resonant, Q=20000
.subckt QZS100K 1 2
*
  lqz	1	11	 	588.873289
  *model	 	ind(tc2=3.5e-8)
  cs	11	12	4.30148495e-015
  rqz	12	2	18.5k
  cp	1	2	1.72059398e-012
.ends
*$
* - - - - - - - - - - - - - - - - - - - - - - - - - - - - - - - - - - - - - -
* 1Mhz frequency standard, AT cut, parallel resonant, Q=25000,
*   calibration capacitance = 13pf
.subckt QZP1MEG 1 2
*
  lqz	1	11	2.54647909
  cs	11	12	9.95357648e-015
  rqz	12	2	640
  cp	1	2	2.48839412e-012
.ends
*$
* - - - - - - - - - - - - - - - - - - - - - - - - - - - - - - - - - - - - - -
* 1Mhz frequency standard, AT cut, series resonant, Q=25000
.subckt QZS1MEG 1 2
*
  lqz	1	11	2.54647909
  cs	11	12	9.94718394e-015
  rqz	12	2	640
  cp	1	2	2.48679599e-012
.ends
*$
* - - - - - - - - - - - - - - - - - - - - - - - - - - - - - - - - - - - - - -
* 3.579545Mhz color burst, AT cut, parallel resonant, Q=25000,
*   calibration capacitance = 18pf
.subckt QZPCBRST 1 2
*
  lqz	1	11	.0555779237
  cs	11	12	3.56169600e-014
  rqz	12	2	50
  cp	1	2	8.90424001e-012
.ends
*$
* - - - - - - - - - - - - - - - - - - - - - - - - - - - - - - - - - - - - - -
* 10Mhz frequency standard, AT cut, parallel resonant, Q=25000
*   calibration capacitance = 50pf
.subckt QZP10MEG 1 2
*
  lqz	1	11	2.54647909e-003
  cs	11	12	9.96041181e-014
  rqz	12	2	6.4
  cp	1	2	2.49010295e-011
.ends
*$
* - - - - - - - - - - - - - - - - - - - - - - - - - - - - - - - - - - - - - -
* 10Mhz frequency standard, AT cut, series resonant, Q=25000
.subckt QZS10MEG 1 2
*
  lqz	1	11	2.54647909e-003
  cs	11	12	9.94718394e-014
  rqz	12	2	6.4
  cp	1	2	2.48679599e-011
.ends
*$
*Crystal Subcircuit Parameters
*FREQ = Fundamental frequency 
*RS   = Series resistance
*C    = Parallel capacitance
*Q    = Quality Factor
*Generic type:crystal pkg:HC33/51
.SUBCKT XTAL 1 2 PARAMS: FREQ=1Meg RS=750 C=13pf Q=1000
LX 1 3 {((Q*RS)/(6.2831852*FREQ))} IC=0.5M
CX 3 4 {(1/(Q*6.2831852*FREQ*RS))}
C0 1 2 {C}
RS 4 2 {RS}
.ENDS
*Raltron R38 32.768KHZ alias:XCRYSTAL {FREQ=32770 RS=18000 C=1.25E-11} pkg:R38        
.SUBCKT R38-32.768 1 2 PARAMS: FREQ=32770 RS=18000 C=1.25E-11 Q=1000
LX 1 3 {((Q*RS)/(6.2831852*FREQ))} IC=0.5M
CX 3 4 {(1/(Q*6.2831852*FREQ*RS))}
C0 1 2 {C}
RS 4 2 {RS}
.ENDS
*ECS X801 32.768KHZ alias:XCRYSTAL {FREQ=32770 RS=30000 C=1.25E-11} pkg:X801        
.SUBCKT ECS-3X8 1 2 PARAMS: FREQ=32770 RS=30000 C=1.25E-11 Q=1000
LX 1 3 {((Q*RS)/(6.2831852*FREQ))} IC=0.5M
CX 3 4 {(1/(Q*6.2831852*FREQ*RS))}
C0 1 2 {C}
RS 4 2 {RS}
.ENDS
*Raltron R26 32.768KHZ alias:XCRYSTAL {FREQ=32770 RS=35000 C=1.25E-11} pkg:R26        
.SUBCKT R26-32.768 1 2 PARAMS: FREQ=32770 RS=35000 C=1.25E-11 Q=1000
LX 1 3 {((Q*RS)/(6.2831852*FREQ))} IC=0.5M
CX 3 4 {(1/(Q*6.2831852*FREQ*RS))}
C0 1 2 {C}
RS 4 2 {RS}
.ENDS
*Raltron R145 32.768KHZ alias:XCRYSTAL {FREQ=32770 RS=40000 C=8E-12} pkg:R145        
.SUBCKT R145-32.768 1 2 PARAMS: FREQ=32770 RS=40000 C=8E-12 Q=1000
LX 1 3 {((Q*RS)/(6.2831852*FREQ))} IC=0.5M
CX 3 4 {(1/(Q*6.2831852*FREQ*RS))}
C0 1 2 {C}
RS 4 2 {RS}
.ENDS
*ECS X802 32.768KHZ alias:XCRYSTAL {FREQ=32770 RS=45000 C=1.25E-11} pkg:X802        
.SUBCKT ECS.3271213 1 2 PARAMS: FREQ=32770 RS=45000 C=1.25E-11 Q=1000
LX 1 3 {((Q*RS)/(6.2831852*FREQ))} IC=0.5M
CX 3 4 {(1/(Q*6.2831852*FREQ*RS))}
C0 1 2 {C}
RS 4 2 {RS}
.ENDS
*ECS X803 32.768KHZ alias:XCRYSTAL {FREQ=32770 RS=45000 C=8E-12} pkg:X803        
.SUBCKT ECS.327814 1 2 PARAMS: FREQ=32770 RS=45000 C=8E-12 Q=1000
LX 1 3 {((Q*RS)/(6.2831852*FREQ))} IC=0.5M
CX 3 4 {(1/(Q*6.2831852*FREQ*RS))}
C0 1 2 {C}
RS 4 2 {RS}
.ENDS
*Raltron RSM200S 32.768KHZ alias:XCRYSTAL {FREQ=32770 RS=50000 C=1.25E-11} pkg:RSM200S        
.SUBCKT RSM200S32.76 1 2 PARAMS: FREQ=32770 RS=50000 C=1.25E-11 Q=1000
LX 1 3 {((Q*RS)/(6.2831852*FREQ))} IC=0.5M
CX 3 4 {(1/(Q*6.2831852*FREQ*RS))}
C0 1 2 {C}
RS 4 2 {RS}
.ENDS
*ECS HC-49/UA 1.000MHZ alias:XCRYSTAL {RS=600} pkg:HC-49/UA        
.SUBCKT ECS-10-13-1 1 2 PARAMS: FREQ=1E6 RS=600 C=13pf  Q=1000
LX 1 3 {((Q*RS)/(6.2831852*FREQ))} IC=0.5M
CX 3 4 {(1/(Q*6.2831852*FREQ*RS))}
C0 1 2 {C}
RS 4 2 {RS}
.ENDS
*ECS X804 1.000MHZ alias:XCRYSTAL {RS=350 C=8E-12} pkg:X804        
.SUBCKT ECS-10-8-14 1 2 PARAMS: FREQ=1E6 RS=350 C=8E-12 Q=1000
LX 1 3 {((Q*RS)/(6.2831852*FREQ))} IC=0.5M
CX 3 4 {(1/(Q*6.2831852*FREQ*RS))}
C0 1 2 {C}
RS 4 2 {RS}
.ENDS

*CTS alias:XCRYSTAL {FREQ=1E6 RS=540} pkg:HC33/51        
.SUBCKT 1.000MHZ 1 2 PARAMS: FREQ=1E6 RS=540 C=13pf  Q=1000
LX 1 3 {((Q*RS)/(6.2831852*FREQ))} IC=0.5M
CX 3 4 {(1/(Q*6.2831852*FREQ*RS))}
C0 1 2 {C}
RS 4 2 {RS}
.ENDS
.SUBCKT 1.8432MHZ 1 2 PARAMS: FREQ=1.843E6 RS=540 C=13pf  Q=1000
LX 1 3 {((Q*RS)/(6.2831852*FREQ))} IC=0.5M
CX 3 4 {(1/(Q*6.2831852*FREQ*RS))}
C0 1 2 {C}
RS 4 2 {RS}
.ENDS
*ECS HC-49/UA 1.8432MHZ alias:XCRYSTAL {FREQ=1.843E6 RS=350} pkg:HC-49/UA        
.SUBCKT ECS-18-13-1 1 2 PARAMS: FREQ=1.843E6 RS=350 C=13pf  Q=1000
LX 1 3 {((Q*RS)/(6.2831852*FREQ))} IC=0.5M
CX 3 4 {(1/(Q*6.2831852*FREQ*RS))}
C0 1 2 {C}
RS 4 2 {RS}
.ENDS

*CTS alias:XCRYSTAL {FREQ=2E6 RS=250 C=2E-11} pkg:HC33/51        
.SUBCKT 2.000MHZ 1 2 PARAMS: FREQ=2E6 RS=250 C=2E-11 Q=1000
LX 1 3 {((Q*RS)/(6.2831852*FREQ))} IC=0.5M
CX 3 4 {(1/(Q*6.2831852*FREQ*RS))}
C0 1 2 {C}
RS 4 2 {RS}
.ENDS
*ECS HC-49/UA 2.000MHZ alias:XCRYSTAL {FREQ=2E6 RS=300 C=2E-11} pkg:HC-49/UA        
.SUBCKT ECS-20-20-1 1 2 PARAMS: FREQ=2E6 RS=300 C=2E-11 Q=1000
LX 1 3 {((Q*RS)/(6.2831852*FREQ))} IC=0.5M
CX 3 4 {(1/(Q*6.2831852*FREQ*RS))}
C0 1 2 {C}
RS 4 2 {RS}
.ENDS
*ECS HC-33 2.097152MHZ alias:XCRYSTAL {FREQ=2.097E6 RS=250 C=3.2E-11} pkg:HC-3        
.SUBCKT ECS-21-32-2 1 2 PARAMS: FREQ=2.097E6 RS=250 C=3.2E-11 Q=1000
LX 1 3 {((Q*RS)/(6.2831852*FREQ))} IC=0.5M
CX 3 4 {(1/(Q*6.2831852*FREQ*RS))}
C0 1 2 {C}
RS 4 2 {RS}
.ENDS
*ECS HC-49/UA 2.4576MHZ alias:XCRYSTAL {FREQ=2.458E6 RS=250 C=3.2E-11} pkg:HC-49/UA
.SUBCKT ECS-24-32-1 1 2 PARAMS: FREQ=2.458E6 RS=250 C=3.2E-11 Q=1000
LX 1 3 {((Q*RS)/(6.2831852*FREQ))} IC=0.5M
CX 3 4 {(1/(Q*6.2831852*FREQ*RS))}
C0 1 2 {C}
RS 4 2 {RS}
.ENDS
*ECS HC-6/U 2.560MHZ alias:XCRYSTAL {FREQ=2.56E6 RS=125 C=3.2E-11} pkg:HC-6/U        
.SUBCKT ECS25.6322P 1 2 PARAMS: FREQ=2.56E6 RS=125 C=3.2E-11 Q=1000
LX 1 3 {((Q*RS)/(6.2831852*FREQ))} IC=0.5M
CX 3 4 {(1/(Q*6.2831852*FREQ*RS))}
C0 1 2 {C}
RS 4 2 {RS}
.ENDS
*ECS HC-33 2.94912MHZ alias:XCRYSTAL {FREQ=2.949E6 RS=90 C=3.2E-11} pkg:HC-33        
.SUBCKT ECS-29.4322P 1 2 PARAMS: FREQ=2.949E6 RS=90 C=3.2E-11 Q=1000
LX 1 3 {((Q*RS)/(6.2831852*FREQ))} IC=0.5M
CX 3 4 {(1/(Q*6.2831852*FREQ*RS))}
C0 1 2 {C}
RS 4 2 {RS}
.ENDS
*CTS alias:XCRYSTAL {FREQ=3E6 RS=100 C=1.8E-11} pkg:HC33/51        
.SUBCKT 3.000MHZ 1 2 PARAMS: FREQ=3E6 RS=100 C=1.8E-11 Q=1000
LX 1 3 {((Q*RS)/(6.2831852*FREQ))} IC=0.5M
CX 3 4 {(1/(Q*6.2831852*FREQ*RS))}
C0 1 2 {C}
RS 4 2 {RS}
.ENDS
*ECS HC-33 3.000MHZ alias:XCRYSTAL {FREQ=3E6 RS=150 C=3.2E-11} pkg:HC-33        
.SUBCKT ECS-30-32-2 1 2 PARAMS: FREQ=3E6 RS=150 C=3.2E-11 Q=1000
LX 1 3 {((Q*RS)/(6.2831852*FREQ))} IC=0.5M
CX 3 4 {(1/(Q*6.2831852*FREQ*RS))}
C0 1 2 {C}
RS 4 2 {RS}
.ENDS
*CTS alias:XCRYSTAL {FREQ=3.276E6 RS=100 C=1.5E-11} pkg:HC33/51        
.SUBCKT 3.2768MHZ 1 2 PARAMS: FREQ=3.276E6 RS=100 C=1.5E-11 Q=1000
LX 1 3 {((Q*RS)/(6.2831852*FREQ))} IC=0.5M
CX 3 4 {(1/(Q*6.2831852*FREQ*RS))}
C0 1 2 {C}
RS 4 2 {RS}
.ENDS
*ECS HC-49/UA 3.2768MHZ alias:XCRYSTAL {FREQ=3.277E6 RS=200 C=1.5E-11} pkg:HC-49/UA        
.SUBCKT ECS-32-17-1 1 2 PARAMS: FREQ=3.277E6 RS=200 C=1.5E-11 Q=1000
LX 1 3 {((Q*RS)/(6.2831852*FREQ))} IC=0.5M
CX 3 4 {(1/(Q*6.2831852*FREQ*RS))}
C0 1 2 {C}
RS 4 2 {RS}
.ENDS
*ECS HC-33 3.579545MHZ alias:XCRYSTAL {FREQ=3.58E6 RS=100 C=1.6E-11} pkg:HC-33        
.SUBCKT ECS-35-2 1 2 PARAMS: FREQ=3.58E6 RS=100 C=1.6E-11 Q=1000
LX 1 3 {((Q*RS)/(6.2831852*FREQ))} IC=0.5M
CX 3 4 {(1/(Q*6.2831852*FREQ*RS))}
C0 1 2 {C}
RS 4 2 {RS}
.ENDS
*ECS HC-49/UA 3.579545MHZ alias:XCRYSTAL {FREQ=3.58E6 RS=150 C=1.7E-11} pkg:HC-49/UA        
.SUBCKT ECS-35-17-1 1 2 PARAMS: FREQ=3.58E6 RS=150 C=1.7E-11 Q=1000
LX 1 3 {((Q*RS)/(6.2831852*FREQ))} IC=0.5M
CX 3 4 {(1/(Q*6.2831852*FREQ*RS))}
C0 1 2 {C}
RS 4 2 {RS}
.ENDS
*CTS Color Burst alias:XCRYSTAL {FREQ=3.58E6 RS=160 C=1.8E-11} pkg:HC49        
.SUBCKT 3.5795MHZ 1 2 PARAMS: FREQ=3.58E6 RS=160 C=1.8E-11 Q=1000
LX 1 3 {((Q*RS)/(6.2831852*FREQ))} IC=0.5M
CX 3 4 {(1/(Q*6.2831852*FREQ*RS))}
C0 1 2 {C}
RS 4 2 {RS}
.ENDS
*ECS HC-6/U 3.640MHZ alias:XCRYSTAL {FREQ=3.64E6 RS=52 C=3.2E-11} pkg:HC-6/U        
.SUBCKT ECS36.4322P 1 2 PARAMS: FREQ=3.64E6 RS=52 C=3.2E-11 Q=1000
LX 1 3 {((Q*RS)/(6.2831852*FREQ))} IC=0.5M
CX 3 4 {(1/(Q*6.2831852*FREQ*RS))}
C0 1 2 {C}
RS 4 2 {RS}
.ENDS
*CTS alias:XCRYSTAL {FREQ=3.686E6 RS=150 C=2E-11} pkg:HC49        
.SUBCKT 3.6864MHZ 1 2 PARAMS: FREQ=3.686E6 RS=150 C=2E-11 Q=1000
LX 1 3 {((Q*RS)/(6.2831852*FREQ))} IC=0.5M
CX 3 4 {(1/(Q*6.2831852*FREQ*RS))}
C0 1 2 {C}
RS 4 2 {RS}
.ENDS
*ECS HC-49/UA 3.6864MHZ alias:XCRYSTAL {FREQ=3.58E6 RS=175 C=1.7E-11} pkg:HC-49/UA        
.SUBCKT ECS-36-18-1 1 2 PARAMS: FREQ=3.58E6 RS=175 C=1.7E-11 Q=1000
LX 1 3 {((Q*RS)/(6.2831852*FREQ))} IC=0.5M
CX 3 4 {(1/(Q*6.2831852*FREQ*RS))}
C0 1 2 {C}
RS 4 2 {RS}
.ENDS
*ECS HC-6/U 3.700MHZ alias:XCRYSTAL {FREQ=3.7E6 RS=52 C=3.2E-11} pkg:HC-6/U        
.SUBCKT ECS-37-32-2P 1 2 PARAMS: FREQ=3.7E6 RS=52 C=3.2E-11 Q=1000
LX 1 3 {((Q*RS)/(6.2831852*FREQ))} IC=0.5M
CX 3 4 {(1/(Q*6.2831852*FREQ*RS))}
C0 1 2 {C}
RS 4 2 {RS}
.ENDS
*ECS HC-33 3.859MHZ alias:XCRYSTAL {FREQ=3.859E6 RS=150 C=2E-11} pkg:HC-33        
.SUBCKT ECS38.59202 1 2 PARAMS: FREQ=3.859E6 RS=150 C=2E-11 Q=1000
LX 1 3 {((Q*RS)/(6.2831852*FREQ))} IC=0.5M
CX 3 4 {(1/(Q*6.2831852*FREQ*RS))}
C0 1 2 {C}
RS 4 2 {RS}
.ENDS
*ECS HC-49/UA 3.932160MHZ alias:XCRYSTAL {FREQ=3.58E6 RS=100 C=1.7E-11} pkg:HC-49/UA        
.SUBCKT ECS-39-17-1 1 2 PARAMS: FREQ=3.58E6 RS=100 C=1.7E-11 Q=1000
LX 1 3 {((Q*RS)/(6.2831852*FREQ))} IC=0.5M
CX 3 4 {(1/(Q*6.2831852*FREQ*RS))}
C0 1 2 {C}
RS 4 2 {RS}
.ENDS
*CTS alias:XCRYSTAL {FREQ=4E6 RS=75 C=2E-11} pkg:HC49        
.SUBCKT 4.000MHZ 1 2 PARAMS: FREQ=4E6 RS=75 C=2E-11 Q=1000
LX 1 3 {((Q*RS)/(6.2831852*FREQ))} IC=0.5M
CX 3 4 {(1/(Q*6.2831852*FREQ*RS))}
C0 1 2 {C}
RS 4 2 {RS}
.ENDS
*ECS HC-49/UA 4.000MHZ alias:XCRYSTAL {FREQ=4E6 RS=100 C=2E-11} pkg:HC-49/UA        
.SUBCKT ECS-40-20-1 1 2 PARAMS: FREQ=4E6 RS=100 C=2E-11 Q=1000
LX 1 3 {((Q*RS)/(6.2831852*FREQ))} IC=0.5M
CX 3 4 {(1/(Q*6.2831852*FREQ*RS))}
C0 1 2 {C}
RS 4 2 {RS}
.ENDS
*ECS HC-49/UA 4.032MHZ alias:XCRYSTAL {FREQ=4.032E6 RS=120 C=2E-11} pkg:HC-49/UA        
.SUBCKT ECS40.3201 1 2 PARAMS: FREQ=4.032E6 RS=120 C=2E-11 Q=1000
LX 1 3 {((Q*RS)/(6.2831852*FREQ))} IC=0.5M
CX 3 4 {(1/(Q*6.2831852*FREQ*RS))}
C0 1 2 {C}
RS 4 2 {RS}
.ENDS
*ECS HC-49/UA 4.096MHZ alias:XCRYSTAL {FREQ=4.096E6 RS=100 C=2E-11} pkg:HC-49/UA        
.SUBCKT ECS-41-20-1 1 2 PARAMS: FREQ=4.096E6 RS=100 C=2E-11 Q=1000
LX 1 3 {((Q*RS)/(6.2831852*FREQ))} IC=0.5M
CX 3 4 {(1/(Q*6.2831852*FREQ*RS))}
C0 1 2 {C}
RS 4 2 {RS}
.ENDS
*ECS HC-49/UA 4.194304MHZ alias:XCRYSTAL {FREQ=4.194E6 RS=100 C=1.2E-11} pkg:HC-49/UA        
.SUBCKT ECS-42-12-1 1 2 PARAMS: FREQ=4.194E6 RS=100 C=1.2E-11 Q=1000
LX 1 3 {((Q*RS)/(6.2831852*FREQ))} IC=0.5M
CX 3 4 {(1/(Q*6.2831852*FREQ*RS))}
C0 1 2 {C}
RS 4 2 {RS}
.ENDS
*ECS HC-6/U 4.433MHZ alias:XCRYSTAL {FREQ=4.433E6 RS=45 C=3.2E-11} pkg:HC-6/U        
.SUBCKT ECS-44-32-2P 1 2 PARAMS: FREQ=4.433E6 RS=45 C=3.2E-11 Q=1000
LX 1 3 {((Q*RS)/(6.2831852*FREQ))} IC=0.5M
CX 3 4 {(1/(Q*6.2831852*FREQ*RS))}
C0 1 2 {C}
RS 4 2 {RS}
.ENDS
*ECS HC-49/UA 4.433618MHZ alias:XCRYSTAL {FREQ=4.434E6 RS=85 C=2E-11} pkg:HC-49/UA        
.SUBCKT ECS-44-20-1 1 2 PARAMS: FREQ=4.434E6 RS=85 C=2E-11 Q=1000
LX 1 3 {((Q*RS)/(6.2831852*FREQ))} IC=0.5M
CX 3 4 {(1/(Q*6.2831852*FREQ*RS))}
C0 1 2 {C}
RS 4 2 {RS}
.ENDS
*ECS HC-49/US 4.433618MHZ alias:XCRYSTAL {FREQ=4.434E6 RS=100 C=2E-11} pkg:HC-49/US        
.SUBCKT ECS-44-20-4 1 2 PARAMS: FREQ=4.434E6 RS=100 C=2E-11 Q=1000
LX 1 3 {((Q*RS)/(6.2831852*FREQ))} IC=0.5M
CX 3 4 {(1/(Q*6.2831852*FREQ*RS))}
C0 1 2 {C}
RS 4 2 {RS}
.ENDS
*ECS HC-49/UA 4.9152MHZ alias:XCRYSTAL {FREQ=4.915E6 RS=55 C=2E-11} pkg:HC-49/UA        
.SUBCKT ECS-49-20-1 1 2 PARAMS: FREQ=4.915E6 RS=55 C=2E-11 Q=1000
LX 1 3 {((Q*RS)/(6.2831852*FREQ))} IC=0.5M
CX 3 4 {(1/(Q*6.2831852*FREQ*RS))}
C0 1 2 {C}
RS 4 2 {RS}
.ENDS
*ECS HC-49/US 4.9152MHZ alias:XCRYSTAL {FREQ=4.915E6 RS=80 C=2E-11} pkg:HC-49/US        
.SUBCKT ECS-49-20-4 1 2 PARAMS: FREQ=4.915E6 RS=80 C=2E-11 Q=1000
LX 1 3 {((Q*RS)/(6.2831852*FREQ))} IC=0.5M
CX 3 4 {(1/(Q*6.2831852*FREQ*RS))}
C0 1 2 {C}
RS 4 2 {RS}
.ENDS
*CTS alias:XCRYSTAL {FREQ=5E6 RS=50 C=2E-11} pkg:HC49        
.SUBCKT 5.000MHZ 1 2 PARAMS: FREQ=5E6 RS=50 C=2E-11 Q=1000
LX 1 3 {((Q*RS)/(6.2831852*FREQ))} IC=0.5M
CX 3 4 {(1/(Q*6.2831852*FREQ*RS))}
C0 1 2 {C}
RS 4 2 {RS}
.ENDS
*ECS HC-49/UA 5.000MHZ alias:XCRYSTAL {FREQ=5E6 RS=70 C=2E-11} pkg:HC-49/UA        
.SUBCKT ECS-50-20-1 1 2 PARAMS: FREQ=5E6 RS=70 C=2E-11 Q=1000
LX 1 3 {((Q*RS)/(6.2831852*FREQ))} IC=0.5M
CX 3 4 {(1/(Q*6.2831852*FREQ*RS))}
C0 1 2 {C}
RS 4 2 {RS}
.ENDS
*ECS HC-49/US 5.000MHZ alias:XCRYSTAL {FREQ=5E6 RS=80 C=2E-11} pkg:HC-49/US        
.SUBCKT ECS-50-20-4 1 2 PARAMS: FREQ=5E6 RS=80 C=2E-11 Q=1000
LX 1 3 {((Q*RS)/(6.2831852*FREQ))} IC=0.5M
CX 3 4 {(1/(Q*6.2831852*FREQ*RS))}
C0 1 2 {C}
RS 4 2 {RS}
.ENDS
*ECS HC-49/UA 5.0688MHZ alias:XCRYSTAL {FREQ=5.069E6 RS=50 C=2E-11} pkg:HC-49/UA        
.SUBCKT ECS-51-20-1 1 2 PARAMS: FREQ=5.069E6 RS=50 C=2E-11 Q=1000
LX 1 3 {((Q*RS)/(6.2831852*FREQ))} IC=0.5M
CX 3 4 {(1/(Q*6.2831852*FREQ*RS))}
C0 1 2 {C}
RS 4 2 {RS}
.ENDS
*ECS HC-49/US 5.0688MHZ alias:XCRYSTAL {FREQ=5.069E6 RS=80 C=2E-11} pkg:HC-49/US        
.SUBCKT ECS-51-20-4 1 2 PARAMS: FREQ=5.069E6 RS=80 C=2E-11 Q=1000
LX 1 3 {((Q*RS)/(6.2831852*FREQ))} IC=0.5M
CX 3 4 {(1/(Q*6.2831852*FREQ*RS))}
C0 1 2 {C}
RS 4 2 {RS}
.ENDS
*ECS HC-49/UA 5.185MHZ alias:XCRYSTAL {FREQ=5.185E6 RS=50 C=3.2E-11} pkg:HC-49/UA        
.SUBCKT ECS-52-32-1 1 2 PARAMS: FREQ=5.185E6 RS=50 C=3.2E-11 Q=1000
LX 1 3 {((Q*RS)/(6.2831852*FREQ))} IC=0.5M
CX 3 4 {(1/(Q*6.2831852*FREQ*RS))}
C0 1 2 {C}
RS 4 2 {RS}
.ENDS
*ECS HC-49/US 5.185MHZ alias:XCRYSTAL {FREQ=5.185E6 RS=80 C=3.2E-11} pkg:HC-49/US        
.SUBCKT ECS-52-32-4 1 2 PARAMS: FREQ=5.185E6 RS=80 C=3.2E-11 Q=1000
LX 1 3 {((Q*RS)/(6.2831852*FREQ))} IC=0.5M
CX 3 4 {(1/(Q*6.2831852*FREQ*RS))}
C0 1 2 {C}
RS 4 2 {RS}
.ENDS
*ECS HC-49/UA 5.9904MHZ alias:XCRYSTAL {FREQ=5.99E6 RS=40 C=2E-11} pkg:HC-49/UA        
.SUBCKT ECS59.9201 1 2 PARAMS: FREQ=5.99E6 RS=40 C=2E-11 Q=1000
LX 1 3 {((Q*RS)/(6.2831852*FREQ))} IC=0.5M
CX 3 4 {(1/(Q*6.2831852*FREQ*RS))}
C0 1 2 {C}
RS 4 2 {RS}
.ENDS
*ECS HC-49/UA 6.000MHZ alias:XCRYSTAL {FREQ=6E6 RS=50 C=3.2E-11} pkg:HC-49/UA        
.SUBCKT ECS-60-32-1 1 2 PARAMS: FREQ=6E6 RS=50 C=3.2E-11 Q=1000
LX 1 3 {((Q*RS)/(6.2831852*FREQ))} IC=0.5M
CX 3 4 {(1/(Q*6.2831852*FREQ*RS))}
C0 1 2 {C}
RS 4 2 {RS}
.ENDS
*CTS alias:XCRYSTAL {FREQ=6E6 RS=75 C=2E-11} pkg:HC49        
.SUBCKT 6.000MHZ 1 2 PARAMS: FREQ=6E6 RS=75 C=2E-11 Q=1000
LX 1 3 {((Q*RS)/(6.2831852*FREQ))} IC=0.5M
CX 3 4 {(1/(Q*6.2831852*FREQ*RS))}
C0 1 2 {C}
RS 4 2 {RS}
.ENDS
*ECS HC-49/UA 6.144MHZ alias:XCRYSTAL {FREQ=6.144E6 RS=50 C=3.2E-11} pkg:HC-49/UA        
.SUBCKT ECS-61-32-1 1 2 PARAMS: FREQ=6.144E6 RS=50 C=3.2E-11 Q=1000
LX 1 3 {((Q*RS)/(6.2831852*FREQ))} IC=0.5M
CX 3 4 {(1/(Q*6.2831852*FREQ*RS))}
C0 1 2 {C}
RS 4 2 {RS}
.ENDS
*CTS alias:XCRYSTAL {FREQ=6.144E6 RS=75 C=2E-11} pkg:HC49        
.SUBCKT 6.144MHZ 1 2 PARAMS: FREQ=6.144E6 RS=75 C=2E-11 Q=1000
LX 1 3 {((Q*RS)/(6.2831852*FREQ))} IC=0.5M
CX 3 4 {(1/(Q*6.2831852*FREQ*RS))}
C0 1 2 {C}
RS 4 2 {RS}
.ENDS
*ECS HC-49/US 6.500MHZ alias:XCRYSTAL {FREQ=6.5E6 RS=70 C=2E-11} pkg:HC-49/US        
.SUBCKT ECS-65-20-4 1 2 PARAMS: FREQ=6.5E6 RS=70 C=2E-11 Q=1000
LX 1 3 {((Q*RS)/(6.2831852*FREQ))} IC=0.5M
CX 3 4 {(1/(Q*6.2831852*FREQ*RS))}
C0 1 2 {C}
RS 4 2 {RS}
.ENDS
*ECS HC-49/UA 6.5536MHZ alias:XCRYSTAL {FREQ=6.554E6 RS=40 C=1.2E-11} pkg:HC-49/UA        
.SUBCKT ECS-65-12-1 1 2 PARAMS: FREQ=6.554E6 RS=40 C=1.2E-11 Q=1000
LX 1 3 {((Q*RS)/(6.2831852*FREQ))} IC=0.5M
CX 3 4 {(1/(Q*6.2831852*FREQ*RS))}
C0 1 2 {C}
RS 4 2 {RS}
.ENDS
*ECS HC-49/UA 7.3728MHZ alias:XCRYSTAL {FREQ=7.373E6 RS=40 C=2E-11} pkg:HC-49/UA        
.SUBCKT ECS-73-20-1 1 2 PARAMS: FREQ=7.373E6 RS=40 C=2E-11 Q=1000
LX 1 3 {((Q*RS)/(6.2831852*FREQ))} IC=0.5M
CX 3 4 {(1/(Q*6.2831852*FREQ*RS))}
C0 1 2 {C}
RS 4 2 {RS}
.ENDS
*ECS HC-49/US 7.3728MHZ alias:XCRYSTAL {FREQ=7.373E6 RS=60 C=2E-11} pkg:HC-49/US        
.SUBCKT ECS-73-20-4 1 2 PARAMS: FREQ=7.373E6 RS=60 C=2E-11 Q=1000
LX 1 3 {((Q*RS)/(6.2831852*FREQ))} IC=0.5M
CX 3 4 {(1/(Q*6.2831852*FREQ*RS))}
C0 1 2 {C}
RS 4 2 {RS}
.ENDS
*ECS HC-49/UA 7.680MHZ alias:XCRYSTAL {FREQ=7.373E6 RS=40 C=2E-11} pkg:HC-49/UA        
.SUBCKT ECS76.8201 1 2 PARAMS: FREQ=7.373E6 RS=40 C=2E-11 Q=1000
LX 1 3 {((Q*RS)/(6.2831852*FREQ))} IC=0.5M
CX 3 4 {(1/(Q*6.2831852*FREQ*RS))}
C0 1 2 {C}
RS 4 2 {RS}
.ENDS
*ECS HC-49/UA 8.000MHZ alias:XCRYSTAL {FREQ=8E6 RS=40 C=2E-11} pkg:HC-49/UA        
.SUBCKT ECS-80-20-1 1 2 PARAMS: FREQ=8E6 RS=40 C=2E-11 Q=1000
LX 1 3 {((Q*RS)/(6.2831852*FREQ))} IC=0.5M
CX 3 4 {(1/(Q*6.2831852*FREQ*RS))}
C0 1 2 {C}
RS 4 2 {RS}
.ENDS
*CTS alias:XCRYSTAL {FREQ=8E6 RS=45 C=2E-11} pkg:HC49        
.SUBCKT 8.000MHZ 1 2 PARAMS: FREQ=8E6 RS=45 C=2E-11 Q=1000
LX 1 3 {((Q*RS)/(6.2831852*FREQ))} IC=0.5M
CX 3 4 {(1/(Q*6.2831852*FREQ*RS))}
C0 1 2 {C}
RS 4 2 {RS}
.ENDS
*ECS HC-49/UA 9.8304MHZ alias:XCRYSTAL {FREQ=9.83E6 RS=35 C=2E-11} pkg:HC-49/UA        
.SUBCKT ECS98.3201 1 2 PARAMS: FREQ=9.83E6 RS=35 C=2E-11 Q=1000
LX 1 3 {((Q*RS)/(6.2831852*FREQ))} IC=0.5M
CX 3 4 {(1/(Q*6.2831852*FREQ*RS))}
C0 1 2 {C}
RS 4 2 {RS}
.ENDS
*ECS ECX-3A 9.8304MHZ alias:XCRYSTAL {FREQ=9.83E6 RS=50 C=2E-11} pkg:ECX-3A        
.SUBCKT ECS98.3207 1 2 PARAMS: FREQ=9.83E6 RS=50 C=2E-11 Q=1000
LX 1 3 {((Q*RS)/(6.2831852*FREQ))} IC=0.5M
CX 3 4 {(1/(Q*6.2831852*FREQ*RS))}
C0 1 2 {C}
RS 4 2 {RS}
.ENDS

*CTS alias:XCRYSTAL {FREQ=1E7 RS=35 C=3E-11} pkg:HC49        
.SUBCKT 10.000MHZ 1 2 PARAMS: FREQ=1E7 RS=35 C=3E-11 Q=1000
LX 1 3 {((Q*RS)/(6.2831852*FREQ))} IC=0.5M
CX 3 4 {(1/(Q*6.2831852*FREQ*RS))}
C0 1 2 {C}
RS 4 2 {RS}
.ENDS
*CTS alias:XCRYSTAL {FREQ=1.1E7 RS=35 C=1.8E-11} pkg:HC49        
.SUBCKT 11.000MHZ 1 2 PARAMS: FREQ=1.1E7 RS=35 C=1.8E-11 Q=1000
LX 1 3 {((Q*RS)/(6.2831852*FREQ))} IC=0.5M
CX 3 4 {(1/(Q*6.2831852*FREQ*RS))}
C0 1 2 {C}
RS 4 2 {RS}
.ENDS
*ECS HC-49/UA 11.0592MHZ alias:XCRYSTAL {FREQ=1.106E7 RS=25 C=2E-11} pkg:HC-49/UA        
.SUBCKT ECS110.5201 1 2 PARAMS: FREQ=1.106E7 RS=25 C=2E-11 Q=1000
LX 1 3 {((Q*RS)/(6.2831852*FREQ))} IC=0.5M
CX 3 4 {(1/(Q*6.2831852*FREQ*RS))}
C0 1 2 {C}
RS 4 2 {RS}
.ENDS
*ECS HC-49/US 11.0592MHZ alias:XCRYSTAL {FREQ=1.106E7 RS=40 C=2E-11} pkg:HC-49/US        
.SUBCKT ECS110.5204 1 2 PARAMS: FREQ=1.106E7 RS=40 C=2E-11 Q=1000
LX 1 3 {((Q*RS)/(6.2831852*FREQ))} IC=0.5M
CX 3 4 {(1/(Q*6.2831852*FREQ*RS))}
C0 1 2 {C}
RS 4 2 {RS}
.ENDS

*CTS alias:XCRYSTAL {FREQ=1.2E7 RS=35 C=3.2E-11} pkg:HC49        
.SUBCKT 12.000MHZ 1 2 PARAMS: FREQ=1.2E7 RS=35 C=3.2E-11 Q=1000
LX 1 3 {((Q*RS)/(6.2831852*FREQ))} IC=0.5M
CX 3 4 {(1/(Q*6.2831852*FREQ*RS))}
C0 1 2 {C}
RS 4 2 {RS}
.ENDS
*ECS HC-49/UA 12.00MHZ alias:XCRYSTAL {FREQ=1.2E7 RS=25 C=3.2E-11} pkg:HC-49/UA        
.SUBCKT ECS-120-32-1 1 2 PARAMS: FREQ=1.2E7 RS=25 C=3.2E-11 Q=1000
LX 1 3 {((Q*RS)/(6.2831852*FREQ))} IC=0.5M
CX 3 4 {(1/(Q*6.2831852*FREQ*RS))}
C0 1 2 {C}
RS 4 2 {RS}
.ENDS
*ECS HC-49/US 12.960MHZ alias:XCRYSTAL {FREQ=1.296E7 RS=40 C=1.8E-11} pkg:HC-49/US        
.SUBCKT ECS129.6184 1 2 PARAMS: FREQ=1.296E7 RS=40 C=1.8E-11 Q=1000
LX 1 3 {((Q*RS)/(6.2831852*FREQ))} IC=0.5M
CX 3 4 {(1/(Q*6.2831852*FREQ*RS))}
C0 1 2 {C}
RS 4 2 {RS}
.ENDS

*CTS alias:XCRYSTAL {FREQ=1.5E7 RS=35 C=3E-11} pkg:HC49        
.SUBCKT 15.000MHZ 1 2 PARAMS: FREQ=1.5E7 RS=35 C=3E-11 Q=1000
LX 1 3 {((Q*RS)/(6.2831852*FREQ))} IC=0.5M
CX 3 4 {(1/(Q*6.2831852*FREQ*RS))}
C0 1 2 {C}
RS 4 2 {RS}
.ENDS
*ECS HC-49/US 15.360MHZ alias:XCRYSTAL {FREQ=1.536E7 RS=40 C=2E-11} pkg:HC-49/US        
.SUBCKT ECS-153-20-4 1 2 PARAMS: FREQ=1.536E7 RS=40 C=2E-11 Q=1000
LX 1 3 {((Q*RS)/(6.2831852*FREQ))} IC=0.5M
CX 3 4 {(1/(Q*6.2831852*FREQ*RS))}
C0 1 2 {C}
RS 4 2 {RS}
.ENDS
*CTS alias:XCRYSTAL {FREQ=1.6E7 RS=35 C=3E-11} pkg:HC49        
.SUBCKT 16.000MHZ 1 2 PARAMS: FREQ=1.6E7 RS=35 C=3E-11 Q=1000
LX 1 3 {((Q*RS)/(6.2831852*FREQ))} IC=0.5M
CX 3 4 {(1/(Q*6.2831852*FREQ*RS))}
C0 1 2 {C}
RS 4 2 {RS}
.ENDS
*ECS HC-49/US 16.257MHZ alias:XCRYSTAL {FREQ=1.626E7 RS=30 C=2E-11} pkg:HC-49/US        
.SUBCKT ECS162.5204 1 2 PARAMS: FREQ=1.626E7 RS=30 C=2E-11 Q=1000
LX 1 3 {((Q*RS)/(6.2831852*FREQ))} IC=0.5M
CX 3 4 {(1/(Q*6.2831852*FREQ*RS))}
C0 1 2 {C}
RS 4 2 {RS}
.ENDS
*ECS HC-49/UA 19.6608MHZ alias:XCRYSTAL {FREQ=1.966E7 RS=20 C=2E-11} pkg:HC-49/UA
.SUBCKT ECS196.6201 1 2 PARAMS: FREQ=1.966E7 RS=20 C=2E-11 Q=1000
LX 1 3 {((Q*RS)/(6.2831852*FREQ))} IC=0.5M
CX 3 4 {(1/(Q*6.2831852*FREQ*RS))}
C0 1 2 {C}
RS 4 2 {RS}
.ENDS
*ECS HC-49/UA 20.00MHZ alias:XCRYSTAL {FREQ=2E7 RS=20 C=2E-11} pkg:HC-49/UA        
.SUBCKT ECS-200-20-1 1 2 PARAMS: FREQ=2E7 RS=20 C=2E-11 Q=1000
LX 1 3 {((Q*RS)/(6.2831852*FREQ))} IC=0.5M
CX 3 4 {(1/(Q*6.2831852*FREQ*RS))}
C0 1 2 {C}
RS 4 2 {RS}
.ENDS
*ECS HC-49/US 20.00MHZ alias:XCRYSTAL {FREQ=2E7 RS=30 C=2E-11} pkg:HC-49/US        
.SUBCKT ECS-200-20-4 1 2 PARAMS: FREQ=2E7 RS=30 C=2E-11 Q=1000
LX 1 3 {((Q*RS)/(6.2831852*FREQ))} IC=0.5M
CX 3 4 {(1/(Q*6.2831852*FREQ*RS))}
C0 1 2 {C}
RS 4 2 {RS}
.ENDS
*CTS alias:XCRYSTAL {FREQ=2E7 RS=35 C=3E-11} pkg:HC49        
.SUBCKT 20.000MHZ 1 2 PARAMS: FREQ=2E7 RS=35 C=3E-11 Q=1000
LX 1 3 {((Q*RS)/(6.2831852*FREQ))} IC=0.5M
CX 3 4 {(1/(Q*6.2831852*FREQ*RS))}
C0 1 2 {C}
RS 4 2 {RS}
.ENDS
*ECS HC-49/UA 24.00MHZ alias:XCRYSTAL {FREQ=2.4E7 RS=20 C=2E-11} pkg:HC-49/UA        
.SUBCKT ECS-240-20-1 1 2 PARAMS: FREQ=2.4E7 RS=20 C=2E-11 Q=1000
LX 1 3 {((Q*RS)/(6.2831852*FREQ))} IC=0.5M
CX 3 4 {(1/(Q*6.2831852*FREQ*RS))}
C0 1 2 {C}
RS 4 2 {RS}
.ENDS
*ECS HC-49/US 24.00MHZ alias:XCRYSTAL {FREQ=2.4E7 RS=30 C=1.6E-11} pkg:HC-49/US        
.SUBCKT ECS-240-16-4 1 2 PARAMS: FREQ=2.4E7 RS=30 C=1.6E-11 Q=1000
LX 1 3 {((Q*RS)/(6.2831852*FREQ))} IC=0.5M
CX 3 4 {(1/(Q*6.2831852*FREQ*RS))}
C0 1 2 {C}
RS 4 2 {RS}
.ENDS
*CTS alias:XCRYSTAL {FREQ=2.4E7 RS=35 C=3E-11} pkg:HC49        
.SUBCKT 24.000MHZ 1 2 PARAMS: FREQ=2.4E7 RS=35 C=3E-11 Q=1000
LX 1 3 {((Q*RS)/(6.2831852*FREQ))} IC=0.5M
CX 3 4 {(1/(Q*6.2831852*FREQ*RS))}
C0 1 2 {C}
RS 4 2 {RS}
.ENDS
*ECS HC-49/UA 49.860MHZ alias:XCRYSTAL {FREQ=4.986E7 RS=40 C=2E-11} pkg:HC-49/UA        
.SUBCKT ECS498.6201 1 2 PARAMS: FREQ=4.986E7 RS=40 C=2E-11 Q=1000
LX 1 3 {((Q*RS)/(6.2831852*FREQ))} IC=0.5M
CX 3 4 {(1/(Q*6.2831852*FREQ*RS))}
C0 1 2 {C}
RS 4 2 {RS}
.ENDS