*SRC=1N4728A;1N4728A;Diodes;Zener <=10V; 3.30V  1.00W   Diodes Inc.Zener
.SUBCKT 1N4728A_3.3V_1W  1 2
D1 1 2 DF
DZ 3 1 DR
VZ 2 3 0.972 
.MODEL DF D ( IS=125p RS=0.620 N=1.10 CJO=364p VJ=0.750 M=0.330 TT=50.1n )
.MODEL DR D ( IS=25.0f RS=1.24 N=3.00 )
.ENDS

*SRC=1N4729A;1N4729A;Diodes;Zener <=10V; 3.60V  1.00W   Diodes Inc. Zener
.SUBCKT 1N4729A_3.6V_1W  1 2
*        Terminals    A   K
D1 1 2 DF
DZ 3 1 DR
VZ 2 3 1.30
.MODEL DF D ( IS=114p RS=0.620 N=1.10 CJO=319p VJ=0.750 M=0.330 TT=50.1n )
.MODEL DR D ( IS=22.9f RS=0.923 N=3.00 )
.ENDS

*SRC=1N4730A;1N4730A;Diodes;Zener <=10V; 3.90V  1.00W   Diodes Inc. Zener
.SUBCKT 1N4730A  1 2
*        Terminals    A   K
D1 1 2 DF
DZ 3 1 DR
VZ 2 3 1.63
.MODEL DF D ( IS=106p RS=0.620 N=1.10 CJO=283p VJ=0.750 M=0.330 TT=50.1n )
.MODEL DR D ( IS=21.1f RS=0.645 N=3.00 )
.ENDS

*SRC=1N4731A;1N4731A;Diodes;Zener <=10V; 4.30V  1.00W   Diodes Inc. Zener
.SUBCKT 1N4731A  1 2
*        Terminals    A   K
D1 1 2 DF
DZ 3 1 DR
VZ 2 3 2.18
.MODEL DF D ( IS=95.8p RS=0.620 N=1.10 CJO=244p VJ=0.750 M=0.330 TT=50.1n )
.MODEL DR D ( IS=19.2f RS=0.377 N=2.82 )
.ENDS

*SRC=1N4732A;1N4732A;Diodes;Zener <=10V; 4.70V  1.00W   Diodes Inc. Zener
.SUBCKT 1N4732A  1 2
*        Terminals    A   K
D1 1 2 DF
DZ 3 1 DR
VZ 2 3 2.99
.MODEL DF D ( IS=87.7p RS=0.620 N=1.10 CJO=214p VJ=0.750 M=0.330 TT=50.1n )
.MODEL DR D ( IS=17.5f RS=0.333 N=2.28 )
.ENDS

*SRC=1N4733A;1N4733A;Diodes;Zener <=10V; 5.10V  1.00W   Diodes Inc. Zener
.SUBCKT 1N4733A  1 2
*        Terminals    A   K
D1 1 2 DF
DZ 3 1 DR
VZ 2 3 3.69
.MODEL DF D ( IS=80.8p RS=0.620 N=1.10 CJO=189p VJ=0.750 M=0.330 TT=50.1n )
.MODEL DR D ( IS=16.2f RS=0.296 N=1.87 )
.ENDS

*SRC=1N4734A;1N4734A;Diodes;Zener <=10V; 5.60V  1.00W   Diodes Inc. Zener
.SUBCKT 1N4734A  1 2
*        Terminals    A   K
D1 1 2 DF
DZ 3 1 DR
VZ 2 3 4.48
.MODEL DF D ( IS=73.6p RS=0.620 N=1.10 CJO=165p VJ=0.750 M=0.330 TT=50.1n )
.MODEL DR D ( IS=14.7f RS=0.256 N=1.49 )
.ENDS

*SRC=1N4735A;1N4735A;Diodes;Zener <=10V; 6.20V  1.00W   Diodes Inc. Zener
.SUBCKT 1N4735A  1 2
*        Terminals    A   K
D1 1 2 DF
DZ 3 1 DR
VZ 2 3 5.33
.MODEL DF D ( IS=66.5p RS=0.620 N=1.10 CJO=141p VJ=0.750 M=0.330 TT=50.1n )
.MODEL DR D ( IS=13.3f RS=0.218 N=1.16 )
.ENDS

*SRC=1N4736A;1N4736A;Diodes;Zener <=10V; 6.80V  1.00W   Diodes Inc. Zener
.SUBCKT 1N4736A  1 2
*        Terminals    A   K
D1 1 2 DF
DZ 3 1 DR
VZ 2 3 6.05
.MODEL DF D ( IS=60.6p RS=0.620 N=1.10 CJO=123p VJ=0.750 M=0.330 TT=50.1n )
.MODEL DR D ( IS=12.1f RS=0.209 N=1.00 )
.ENDS

*SRC=1N4737A;1N4737A;Diodes;Zener <=10V; 7.50V  1.00W   Diodes Inc. Zener
.SUBCKT 1N4737A  1 2
*        Terminals    A   K
D1 1 2 DF
DZ 3 1 DR
VZ 2 3 6.68
.MODEL DF D ( IS=54.9p RS=0.620 N=1.10 CJO=106p VJ=0.750 M=0.330 TT=50.1n )
.MODEL DR D ( IS=11.0f RS=0.247 N=1.09 )
.ENDS

*SRC=1N4738A;1N4738A;Diodes;Zener <=10V; 8.20V  1.00W   Diodes Inc. Zener
.SUBCKT 1N4738A  1 2
*        Terminals    A   K
D1 1 2 DF
DZ 3 1 DR
VZ 2 3 7.33
.MODEL DF D ( IS=50.2p RS=0.620 N=1.10 CJO=92.8p VJ=0.750 M=0.330 TT=50.1n )
.MODEL DR D ( IS=10.0f RS=0.288 N=1.15 )
.ENDS

*SRC=1N4739A;1N4739A;Diodes;Zener <=10V; 9.10V  1.00W   Diodes Inc. Zener
.SUBCKT 1N4739A  1 2
*        Terminals    A   K
D1 1 2 DF
DZ 3 1 DR
VZ 2 3 8.16
.MODEL DF D ( IS=45.3p RS=0.620 N=1.10 CJO=79.4p VJ=0.750 M=0.330 TT=50.1n )
.MODEL DR D ( IS=9.05f RS=0.344 N=1.24 )
.ENDS

*SRC=1N4740A;1N4740A;Diodes;Zener <=10V; 10.0V  1.00W   Diodes Inc. Zener
.SUBCKT 1N4740A  1 2
*        Terminals    A   K
D1 1 2 DF
DZ 3 1 DR
VZ 2 3 9.02
.MODEL DF D ( IS=41.2p RS=0.620 N=1.10 CJO=68.9p VJ=0.750 M=0.330 TT=50.1n )
.MODEL DR D ( IS=8.24f RS=0.403 N=1.30 )
.ENDS

*SRC=1N4741A;1N4741A;Diodes;Zener 10V-50V; 11.0V  1.00W   Diodes Inc. Zener
.SUBCKT 1N4741A  1 2
*        Terminals    A   K
D1 1 2 DF
DZ 3 1 DR
VZ 2 3 9.94
.MODEL DF D ( IS=37.5p RS=0.620 N=1.10 CJO=101p VJ=1.00 M=0.330 TT=50.1n )
.MODEL DR D ( IS=7.49f RS=0.474 N=1.41 )
.ENDS

*SRC=1N4742A;1N4742A;Diodes;Zener 10V-50V; 12.0V  1.00W   Diodes Inc. Zener
.SUBCKT 1N4742A  1 2
*        Terminals    A   K
D1 1 2 DF
DZ 3 1 DR
VZ 2 3 10.9
.MODEL DF D ( IS=34.3p RS=0.620 N=1.10 CJO=94.2p VJ=1.00 M=0.330 TT=50.1n )
.MODEL DR D ( IS=6.87f RS=0.550 N=1.49 )
.ENDS

*SRC=1N4743A;1N4743A;Diodes;Zener 10V-50V; 13.0V  1.00W   Diodes Inc. Zener
.SUBCKT 1N4743A  1 2
*        Terminals    A   K
D1 1 2 DF
DZ 3 1 DR
VZ 2 3 11.8
.MODEL DF D ( IS=31.7p RS=0.620 N=1.10 CJO=88.1p VJ=1.00 M=0.330 TT=50.1n )
.MODEL DR D ( IS=6.34f RS=0.630 N=1.55 )
.ENDS

*SRC=1N4744A;1N4744A;Diodes;Zener 10V-50V; 15.0V  1.00W   Diodes Inc. Zener
.SUBCKT 1N4744A  1 2
*        Terminals    A   K
D1 1 2 DF
DZ 3 1 DR
VZ 2 3 13.7
.MODEL DF D ( IS=27.5p RS=0.620 N=1.10 CJO=78.3p VJ=1.00 M=0.330 TT=50.1n )
.MODEL DR D ( IS=5.49f RS=0.804 N=1.77 )
.ENDS

*SRC=1N4745A;1N4745A;Diodes;Zener 10V-50V; 16.0V  1.00W   Diodes Inc. Zener
.SUBCKT 1N4745A  1 2
*        Terminals    A   K
D1 1 2 DF
DZ 3 1 DR
VZ 2 3 14.6
.MODEL DF D ( IS=25.7p RS=0.620 N=1.10 CJO=74.4p VJ=1.00 M=0.330 TT=50.1n )
.MODEL DR D ( IS=5.15f RS=0.897 N=1.80 )
.ENDS

*SRC=1N4746A;1N4746A;Diodes;Zener 10V-50V; 18.0V  1.00W   Diodes Inc. Zener
.SUBCKT 1N4746A  1 2
*        Terminals    A   K
D1 1 2 DF
DZ 3 1 DR
VZ 2 3 16.5
.MODEL DF D ( IS=22.9p RS=0.620 N=1.10 CJO=67.8p VJ=1.00 M=0.330 TT=50.1n )
.MODEL DR D ( IS=4.58f RS=1.10 N=1.98 )
.ENDS

*SRC=1N4747A;1N4747A;Diodes;Zener 10V-50V; 20.0V  1.00W   Diodes Inc. Zener
.SUBCKT 1N4747A  1 2
*        Terminals    A   K
D1 1 2 DF
DZ 3 1 DR
VZ 2 3 18.4
.MODEL DF D ( IS=20.6p RS=0.620 N=1.10 CJO=62.5p VJ=1.00 M=0.330 TT=50.1n )
.MODEL DR D ( IS=4.12f RS=1.31 N=2.12 )
.ENDS

*SRC=1N4748A;1N4748A;Diodes;Zener 10V-50V; 22.0V  1.00W   Diodes Inc. Zener
.SUBCKT 1N4748A  1 2
*        Terminals    A   K
D1 1 2 DF
DZ 3 1 DR
VZ 2 3 20.3
.MODEL DF D ( IS=18.7p RS=0.620 N=1.10 CJO=58.2p VJ=1.00 M=0.330 TT=50.1n )
.MODEL DR D ( IS=3.75f RS=1.54 N=2.29 )
.ENDS

*SRC=1N4749A;1N4749A;Diodes;Zener 10V-50V; 24.0V  1.00W   Diodes Inc. Zener
.SUBCKT 1N4749A  1 2
*        Terminals    A   K
D1 1 2 DF
DZ 3 1 DR
VZ 2 3 22.2
.MODEL DF D ( IS=17.2p RS=0.620 N=1.10 CJO=54.6p VJ=1.00 M=0.330 TT=50.1n )
.MODEL DR D ( IS=3.43f RS=1.79 N=2.42 )
.ENDS

*SRC=1N4750A;1N4750A;Diodes;Zener 10V-50V; 27.0V  1.00W   Diodes Inc. Zener
.SUBCKT 1N4750A  1 2
*        Terminals    A   K
D1 1 2 DF
DZ 3 1 DR
VZ 2 3 25.0
.MODEL DF D ( IS=15.3p RS=0.620 N=1.10 CJO=50.2p VJ=1.00 M=0.330 TT=50.1n )
.MODEL DR D ( IS=3.05f RS=2.18 N=2.68 )
.ENDS

*SRC=1N4751A;1N4751A;Diodes;Zener 10V-50V; 30.0V  1.00W   Diodes Inc. Zener
.SUBCKT 1N4751A  1 2
*        Terminals    A   K
D1 1 2 DF
DZ 3 1 DR
VZ 2 3 27.8
.MODEL DF D ( IS=13.7p RS=0.620 N=1.10 CJO=46.7p VJ=1.00 M=0.330 TT=50.1n )
.MODEL DR D ( IS=2.75f RS=2.61 N=2.87 )
.ENDS

*SRC=1N4752A;1N4752A;Diodes;Zener 10V-50V; 33.0V  1.00W   Diodes Inc. Zener
.SUBCKT 1N4752A  1 2
*        Terminals    A   K
D1 1 2 DF
DZ 3 1 DR
VZ 2 3 30.8
.MODEL DF D ( IS=12.5p RS=0.620 N=1.10 CJO=43.8p VJ=1.00 M=0.330 TT=50.1n )
.MODEL DR D ( IS=2.50f RS=3.07 N=2.98 )
.ENDS

*SRC=1N4753A;1N4753A;Diodes;Zener 10V-50V; 36.0V  1.00W   Diodes Inc. Zener
.SUBCKT 1N4753A  1 2
*        Terminals    A   K
D1 1 2 DF
DZ 3 1 DR
VZ 2 3 33.7
.MODEL DF D ( IS=11.4p RS=0.620 N=1.10 CJO=41.4p VJ=1.00 M=0.330 TT=50.1n )
.MODEL DR D ( IS=2.29f RS=4.38 N=3.00 )
.ENDS

*SRC=1N4754A;1N4754A;Diodes;Zener 10V-50V; 39.0V  1.00W   Diodes Inc. Zener
.SUBCKT 1N4754A  1 2
*        Terminals    A   K
D1 1 2 DF
DZ 3 1 DR
VZ 2 3 36.7
.MODEL DF D ( IS=10.6p RS=0.620 N=1.10 CJO=39.4p VJ=1.00 M=0.330 TT=50.1n )
.MODEL DR D ( IS=2.11f RS=5.78 N=3.00 )
.ENDS

*SRC=1N4755A;1N4755A;Diodes;Zener 10V-50V; 43.0V  1.00W   Diodes Inc. Zener
.SUBCKT 1N4755A  1 2
*        Terminals    A   K
D1 1 2 DF
DZ 3 1 DR
VZ 2 3 40.7
.MODEL DF D ( IS=9.58p RS=0.620 N=1.10 CJO=37.1p VJ=1.00 M=0.330 TT=50.1n )
.MODEL DR D ( IS=1.92f RS=7.99 N=3.00 )
.ENDS

*SRC=1N4756A;1N4756A;Diodes;Zener 10V-50V; 47.0V  1.00W   Diodes Inc. Zener
.SUBCKT 1N4756A  1 2
*        Terminals    A   K
D1 1 2 DF
DZ 3 1 DR
VZ 2 3 44.7
.MODEL DF D ( IS=8.77p RS=0.620 N=1.10 CJO=35.2p VJ=1.00 M=0.330 TT=50.1n )
.MODEL DR D ( IS=1.75f RS=10.2 N=3.00 )
.ENDS

*SRC=1N4757A;1N4757A;Diodes;Zener >50V; 51.0V  1.00W   Diodes Inc. Zener
.SUBCKT 1N4757A  1 2
*        Terminals    A   K
D1 1 2 DF
DZ 3 1 DR
VZ 2 3 48.7
.MODEL DF D ( IS=8.08p RS=0.620 N=1.10 CJO=33.6p VJ=1.00 M=0.330 TT=50.1n )
.MODEL DR D ( IS=1.62f RS=12.4 N=3.00 )
.ENDS

*SRC=1N4758A;1N4758A;Diodes;Zener >50V; 56.0V  1.00W   Diodes Inc. Zener
.SUBCKT 1N4758A  1 2
*        Terminals    A   K
D1 1 2 DF
DZ 3 1 DR
VZ 2 3 53.7
.MODEL DF D ( IS=7.36p RS=0.620 N=1.10 CJO=32.0p VJ=1.00 M=0.330 TT=50.1n )
.MODEL DR D ( IS=1.47f RS=15.5 N=3.00 )
.ENDS

*SRC=1N4759A;1N4759A;Diodes;Zener >50V; 62.0V  1.00W   Diodes Inc. Zener
.SUBCKT 1N4759A  1 2
*        Terminals    A   K
D1 1 2 DF
DZ 3 1 DR
VZ 2 3 59.7
.MODEL DF D ( IS=6.65p RS=0.620 N=1.10 CJO=30.3p VJ=1.00 M=0.330 TT=50.1n )
.MODEL DR D ( IS=1.33f RS=19.6 N=3.00 )
.ENDS

*SRC=1N4760A;1N4760A;Diodes;Zener >50V; 68.0V  1.00W   Diodes Inc. Zener
.SUBCKT 1N4760A  1 2
*        Terminals    A   K
D1 1 2 DF
DZ 3 1 DR
VZ 2 3 65.7
.MODEL DF D ( IS=6.06p RS=0.620 N=1.10 CJO=29.0p VJ=1.00 M=0.330 TT=50.1n )
.MODEL DR D ( IS=1.21f RS=24.6 N=3.00 )
.ENDS

*SRC=1N4761A;1N4761A;Diodes;Zener >50V; 75.0V  1.00W   Diodes Inc. Zener
.SUBCKT 1N4761A  1 2
*        Terminals    A   K
D1 1 2 DF
DZ 3 1 DR
VZ 2 3 72.7
.MODEL DF D ( IS=5.49p RS=0.620 N=1.10 CJO=27.7p VJ=1.00 M=0.330 TT=50.1n )
.MODEL DR D ( IS=1.10f RS=30.4 N=3.00 )
.ENDS

*SRC=1N5221B;1N5221B;Diodes;Zener <=10V; 2.40V  0.500W   DIODES INC ZENER
.SUBCKT 1N5221B  1 2
*        Terminals    A   K
D1 1 2 DF
DZ 3 1 DR
VZ 2 3 0
.MODEL DF D ( IS=85.8p RS=2.47m N=1.10 CJO=388p VJ=0.750 M=0.330 TT=50.1n )
.MODEL DR D ( IS=17.2f RS=26.1 N=3.00 )
.ENDS

*SRC=1N5231B;1N5231B;Diodes;Zener <=10V; 5.10V  0.500W   Diodes Inc. Zener
.SUBCKT 1N5231B  1 2
*        Terminals    A   K
D1 1 2 DF
DZ 3 1 DR
VZ 2 3 2.62
.MODEL DF D ( IS=40.4p RS=2.32 N=1.10 CJO=94.6p VJ=0.750 M=0.330 TT=50.1n )
.MODEL DR D ( IS=8.08f RS=13.1 N=3.00 )
.ENDS

*SRC=1N5233B;1N5233B;Diodes;Zener <=10V; 6.00V  0.500W   Diodes Inc. Zener 
*SYM=HZEN 
.SUBCKT 1N5233B  1 2 
*        Terminals    A   K 
D1 1 2 DF 
DZ 3 1 DR 
VZ 2 3 5.11 
.MODEL DF D ( IS=34.3p RS=1.24 N=1.10  CJO=74.2p VJ=0.750 M=0.330 TT=50.1n ) 
.MODEL DR D ( IS=6.87f RS=0.460 N=1.19 ) 
.ENDS

*SRC=1N5235B;1N5235B;Diodes;Zener <=10V; 6.80V  0.500W   Diodes Inc. Zener 
*SYM=HZEN 
.SUBCKT 1N5235B  1 2 
*        Terminals    A   K 
D1 1 2 DF 
DZ 3 1 DR 
VZ 2 3 4.56 
.MODEL DF D ( IS=30.3p RS=1.24 N=1.10  CJO=61.5p VJ=0.750 M=0.330 TT=50.1n ) 
.MODEL DR D ( IS=6.06f RS=1.15 N=2.97 ) 
.ENDS

*SRC=1N5239B;1N5239B;Diodes;Zener <=10V; 9.10V  0.500W   Diodes Inc. Zener
.SUBCKT 1N5239B  1 2
*        Terminals    A   K
D1 1 2 DF
DZ 3 1 DR
VZ 2 3 6.72
.MODEL DF D ( IS=22.6p RS=2.24 N=1.10 CJO=39.7p VJ=0.750 M=0.330 TT=50.1n )
.MODEL DR D ( IS=4.53f RS=6.11 N=3.00 )
.ENDS

*SRC=1N5241B;1N5241B;Diodes;Zener 10V-50V; 11.0V  0.500W   Diodes Inc. Zener 
*SYM=HZEN 
.SUBCKT 1N5241B  1 2 
*        Terminals    A   K 
D1 1 2 DF 
DZ 3 1 DR 
VZ 2 3 9.12 
.MODEL DF D ( IS=18.7p RS=1.24 N=1.10  CJO=58.2p VJ=1.00 M=0.330 TT=50.1n ) 
.MODEL DR D ( IS=3.75f RS=0.949 N=2.45 ) 
.ENDS

*SRC=AZ23C10;AZ23C10;Diodes;Zener <=10V; 10.0V  0.300W   Diodes Inc. Per node.  Device contains two
.SUBCKT AZ23C10  1 2
*        Terminals    A   K
D1 1 2 DF
DZ 3 1 DR
VZ 2 3 8.35
.MODEL DF D ( IS=12.4p RS=31.6 N=1.10 CJO=46.3p VJ=0.750 M=0.330 TT=50.1n )
.MODEL DR D ( IS=2.47f RS=3.45 N=2.23 )
.ENDS

*SRC=AZ23C10W;AZ23C10W;Diodes;Zener <=10V; 10.0V  0.200W   Diodes Inc. Per node.  Device contains two
.SUBCKT AZ23C10W  1 2
*        Terminals    A   K
D1 1 2 DF
DZ 3 1 DR
VZ 2 3 8.32
.MODEL DF D ( IS=8.24p RS=30.4 N=1.10 CJO=46.3p VJ=0.750 M=0.330 TT=50.1n )
.MODEL DR D ( IS=1.65f RS=3.45 N=2.23 )
.ENDS

*SRC=AZ23C11;AZ23C11;Diodes;Zener 10V-50V; 11.0V  0.300W   Diodes Inc. Per node.  Device contains two
.SUBCKT AZ23C11  1 2
*        Terminals    A   K
D1 1 2 DF
DZ 3 1 DR
VZ 2 3 8.79
.MODEL DF D ( IS=11.2p RS=31.3 N=1.10 CJO=41.5p VJ=1.00 M=0.330 TT=50.1n )
.MODEL DR D ( IS=2.25f RS=4.60 N=2.97 )
.ENDS

*SRC=AZ23C12;AZ23C12;Diodes;Zener 10V-50V; 12.0V  0.300W   Diodes Inc. Per node.  Device contains two
.SUBCKT AZ23C12  1 2
*        Terminals    A   K
D1 1 2 DF
DZ 3 1 DR
VZ 2 3 9.78
.MODEL DF D ( IS=10.3p RS=31.0 N=1.10 CJO=39.0p VJ=1.00 M=0.330 TT=50.1n )
.MODEL DR D ( IS=2.06f RS=4.60 N=2.97 )
.ENDS

*SRC=AZ23C13;AZ23C13;Diodes;Zener 10V-50V; 13.0V  0.300W   Diodes Inc. Per node.  Device contains two
.SUBCKT AZ23C13  1 2
*        Terminals    A   K
D1 1 2 DF
DZ 3 1 DR
VZ 2 3 10.7
.MODEL DF D ( IS=9.51p RS=30.8 N=1.10 CJO=37.7p VJ=1.00 M=0.330 TT=50.1n )
.MODEL DR D ( IS=1.90f RS=9.46 N=3.00 )
.ENDS

*SRC=AZ23C15;AZ23C15;Diodes;Zener 10V-50V; 15.0V  0.300W   Diodes Inc. Per node.  Device contains two
.SUBCKT AZ23C15  1 2
*        Terminals    A   K
D1 1 2 DF
DZ 3 1 DR
VZ 2 3 12.7
.MODEL DF D ( IS=8.24p RS=30.4 N=1.10 CJO=31.4p VJ=1.00 M=0.330 TT=50.1n )
.MODEL DR D ( IS=1.65f RS=14.5 N=3.00 )
.ENDS

*SRC=AZ23C16;AZ23C16;Diodes;Zener 10V-50V; 16.0V  0.300W   Diodes Inc. Per node.  Device contains two
.SUBCKT AZ23C16  1 2
*        Terminals    A   K
D1 1 2 DF
DZ 3 1 DR
VZ 2 3 13.6
.MODEL DF D ( IS=7.72p RS=30.2 N=1.10 CJO=30.2p VJ=1.00 M=0.330 TT=50.1n )
.MODEL DR D ( IS=1.54f RS=24.5 N=3.00 )
.ENDS


*SRC=AZ23C18;AZ23C18;Diodes;Zener 10V-50V; 18.0V  0.300W   Diodes Inc. Per node.  Device contains two
.SUBCKT AZ23C18  1 2
*        Terminals    A   K
D1 1 2 DF
DZ 3 1 DR
VZ 2 3 15.6
.MODEL DF D ( IS=6.87p RS=29.9 N=1.10 CJO=26.4p VJ=1.00 M=0.330 TT=50.1n )
.MODEL DR D ( IS=1.37f RS=34.5 N=3.00 )
.ENDS


*SRC=AZ23C18W;AZ23C18W;Diodes;Zener 10V-50V; 18.0V  0.200W   Diodes Inc. Per node.  Device contains two
.SUBCKT AZ23C18W  1 2
*        Terminals    A   K
D1 1 2 DF
DZ 3 1 DR
VZ 2 3 15.5
.MODEL DF D ( IS=4.58p RS=28.7 N=1.10 CJO=26.4p VJ=1.00 M=0.330 TT=50.1n )
.MODEL DR D ( IS=9.16e-016 RS=34.5 N=3.00 )
.ENDS



*SRC=AZ23C20;AZ23C20;Diodes;Zener 10V-50V; 20.0V  0.300W   Diodes Inc. Per node.  Device contains two
.SUBCKT AZ23C20  1 2
*        Terminals    A   K
D1 1 2 DF
DZ 3 1 DR
VZ 2 3 17.6
.MODEL DF D ( IS=6.18p RS=29.6 N=1.10 CJO=23.9p VJ=1.00 M=0.330 TT=50.1n )
.MODEL DR D ( IS=1.24f RS=34.5 N=3.00 )
.ENDS


*SRC=AZ23C22;AZ23C22;Diodes;Zener 10V-50V; 22.0V  0.300W   Diodes Inc. Per node.  Device contains two
.SUBCKT AZ23C22  1 2
*        Terminals    A   K
D1 1 2 DF
DZ 3 1 DR
VZ 2 3 19.5
.MODEL DF D ( IS=5.62p RS=29.3 N=1.10 CJO=22.6p VJ=1.00 M=0.330 TT=50.1n )
.MODEL DR D ( IS=1.12f RS=39.5 N=3.00 )
.ENDS

*SRC=AZ23C24;AZ23C24;Diodes;Zener 10V-50V; 24.0V  0.300W   Diodes Inc. Per node.  Device contains two
.SUBCKT AZ23C24  1 2
*        Terminals    A   K
D1 1 2 DF
DZ 3 1 DR
VZ 2 3 21.4
.MODEL DF D ( IS=5.15p RS=29.1 N=1.10 CJO=21.4p VJ=1.00 M=0.330 TT=50.1n )
.MODEL DR D ( IS=1.03f RS=64.5 N=3.00 )
.ENDS


*SRC=AZ23C27;AZ23C27;Diodes;Zener 10V-50V; 27.0V  0.300W   Diodes Inc. Per node.  Device contains two
.SUBCKT AZ23C27  1 2
*        Terminals    A   K
D1 1 2 DF
DZ 3 1 DR
VZ 2 3 24.4
.MODEL DF D ( IS=4.58p RS=28.7 N=1.10 CJO=20.7p VJ=1.00 M=0.330 TT=50.1n )
.MODEL DR D ( IS=9.16e-016 RS=64.5 N=3.00 )
.ENDS


*SRC=AZ23C2V7;AZ23C2V7;Diodes;Zener <=10V; 2.70V  0.300W   Diodes Inc. Per node.  Device contains two
.SUBCKT AZ23C2V7  1 2
*        Terminals    A   K
D1 1 2 DF
DZ 3 1 DR
VZ 2 3 0.263
.MODEL DF D ( IS=45.8p RS=35.3 N=1.10 CJO=450p VJ=0.750 M=0.330 TT=50.1n )
.MODEL DR D ( IS=9.16f RS=67.5 N=3.00 )
.ENDS


*SRC=AZ23C30;AZ23C30;Diodes;Zener 10V-50V; 30.0V  0.300W   Diodes Inc. Per node.  Device contains two
.SUBCKT AZ23C30  1 2
*        Terminals    A   K
D1 1 2 DF
DZ 3 1 DR
VZ 2 3 27.4
.MODEL DF D ( IS=4.12p RS=28.4 N=1.10 CJO=19.5p VJ=1.00 M=0.330 TT=50.1n )
.MODEL DR D ( IS=8.24e-016 RS=64.5 N=3.00 )
.ENDS


*SRC=AZ23C33;AZ23C33;Diodes;Zener 10V-50V; 33.0V  0.300W   Diodes Inc. Per node.  Device contains two
.SUBCKT AZ23C33  1 2
*        Terminals    A   K
D1 1 2 DF
DZ 3 1 DR
VZ 2 3 30.4
.MODEL DF D ( IS=3.75p RS=28.2 N=1.10 CJO=18.9p VJ=1.00 M=0.330 TT=50.1n )
.MODEL DR D ( IS=7.49e-016 RS=64.5 N=3.00 )
.ENDS


*SRC=AZ23C36;AZ23C36;Diodes;Zener 10V-50V; 36.0V  0.300W   Diodes Inc. Per node.  Device contains two
.SUBCKT AZ23C36  1 2
*        Terminals    A   K
D1 1 2 DF
DZ 3 1 DR
VZ 2 3 33.3
.MODEL DF D ( IS=3.43p RS=27.9 N=1.10 CJO=17.6p VJ=1.00 M=0.330 TT=50.1n )
.MODEL DR D ( IS=6.87e-016 RS=74.5 N=3.00 )
.ENDS

*SRC=AZ23C39;AZ23C39;Diodes;Zener 10V-50V; 39.0V  0.300W   Diodes Inc. Per node.  Device contains two
.SUBCKT AZ23C39  1 2
*        Terminals    A   K
D1 1 2 DF
DZ 3 1 DR
VZ 2 3 36.3
.MODEL DF D ( IS=3.17p RS=27.7 N=1.10 CJO=17.0p VJ=1.00 M=0.330 TT=50.1n )
.MODEL DR D ( IS=6.34e-016 RS=74.5 N=3.00 )
.ENDS


*SRC=AZ23C3V0;AZ23C3V0;Diodes;Zener <=10V; 3.00V  0.300W   Diodes Inc. Per node.  Device contains two
.SUBCKT AZ23C3V0  1 2
*        Terminals    A   K
D1 1 2 DF
DZ 3 1 DR
VZ 2 3 0.495
.MODEL DF D ( IS=41.2p RS=35.0 N=1.10 CJO=417p VJ=0.750 M=0.330 TT=50.1n )
.MODEL DR D ( IS=8.24f RS=79.5 N=3.00 )
.ENDS

*SRC=AZ23C3V3;AZ23C3V3;Diodes;Zener <=10V; 3.30V  0.300W   Diodes Inc. Per node.  Device contains two
.SUBCKT AZ23C3V3  1 2
*        Terminals    A   K
D1 1 2 DF
DZ 3 1 DR
VZ 2 3 0.787
.MODEL DF D ( IS=37.5p RS=34.7 N=1.10 CJO=397p VJ=0.750 M=0.330 TT=50.1n )
.MODEL DR D ( IS=7.49f RS=79.5 N=3.00 )
.ENDS


*SRC=AZ23C3V6;AZ23C3V6;Diodes;Zener <=10V; 3.60V  0.300W   Diodes Inc. Per node.  Device contains two
.SUBCKT AZ23C3V6 1 2
*        Terminals    A   K
D1 1 2 DF
DZ 3 1 DR
VZ 2 3 1.08
.MODEL DF D ( IS=34.3p RS=34.5 N=1.10 CJO=384p VJ=0.750 M=0.330 TT=50.1n )
.MODEL DR D ( IS=6.87f RS=79.5 N=3.00 )
.ENDS


*SRC=AZ23C3V9;AZ23C3V9;Diodes;Zener <=10V; 3.60V  0.300W   Diodes Inc. Per node.  Device contains two
.SUBCKT AZ23C3V9  1 2
*        Terminals    A   K
D1 1 2 DF
DZ 3 1 DR
VZ 2 3 1.08
.MODEL DF D ( IS=34.3p RS=34.5 N=1.10 CJO=370p VJ=0.750 M=0.330 TT=50.1n )
.MODEL DR D ( IS=6.87f RS=79.5 N=3.00 )
.ENDS


*SRC=AZ23C43;AZ23C43;Diodes;Zener 10V-50V; 43.0V  0.300W   Diodes Inc. Per node.  Device contains two
.SUBCKT AZ23C43  1 2
*        Terminals    A   K
D1 1 2 DF
DZ 3 1 DR
VZ 2 3 40.3
.MODEL DF D ( IS=2.87p RS=27.4 N=1.10 CJO=16.7p VJ=1.00 M=0.330 TT=50.1n )
.MODEL DR D ( IS=5.75e-016 RS=84.5 N=3.00 )
.ENDS


*SRC=AZ23C47;AZ23C47;Diodes;Zener 10V-50V; 47.0V  0.300W   Diodes Inc. Per node.  Device contains two
.SUBCKT AZ23C47  1 2
*        Terminals    A   K
D1 1 2 DF
DZ 3 1 DR
VZ 2 3 44.3
.MODEL DF D ( IS=2.63p RS=27.2 N=1.10 CJO=16.3p VJ=1.00 M=0.330 TT=50.1n )
.MODEL DR D ( IS=5.26e-016 RS=84.5 N=3.00 )
.ENDS


*SRC=AZ23C4V3;AZ23C4V3;Diodes;Zener <=10V; 4.30V  0.300W   Diodes Inc. Per node.  Device contains two
.SUBCKT AZ23C4V3  1 2
*        Terminals    A   K
D1 1 2 DF
DZ 3 1 DR
VZ 2 3 1.77
.MODEL DF D ( IS=28.7p RS=34.0 N=1.10 CJO=357p VJ=0.750 M=0.330 TT=50.1n )
.MODEL DR D ( IS=5.75f RS=79.5 N=3.00 )
.ENDS


*SRC=AZ23C4V7;AZ23C4V7;Diodes;Zener <=10V; 4.70V  0.300W   Diodes Inc. Per node.  Device contains two
.SUBCKT AZ23C4V7  1 2
*        Terminals    A   K
D1 1 2 DF
DZ 3 1 DR
VZ 2 3 2.24
.MODEL DF D ( IS=26.3p RS=33.7 N=1.10 CJO=350p VJ=0.750 M=0.330 TT=50.1n )
.MODEL DR D ( IS=5.26f RS=62.5 N=3.00 )
.ENDS


*SRC=AZ23C51;AZ23C51;Diodes;Zener >50V; 51.0V  0.300W   Diodes Inc. Per node.  Device contains two
.SUBCKT AZ23C51  1 2
*        Terminals    A   K
D1 1 2 DF
DZ 3 1 DR
VZ 2 3 48.2
.MODEL DF D ( IS=2.42p RS=26.9 N=1.10 CJO=16.2p VJ=1.00 M=0.330 TT=50.1n )
.MODEL DR D ( IS=4.85e-016 RS=84.5 N=3.00 )
.ENDS


*SRC=AZ23C5V1;AZ23C5V1;Diodes;Zener <=10V; 5.10V  0.300W   Diodes Inc. Per node.  Device contains two
.SUBCKT AZ23C5V1  1 2
*        Terminals    A   K
D1 1 2 DF
DZ 3 1 DR
VZ 2 3 2.73
.MODEL DF D ( IS=24.2p RS=33.5 N=1.10 CJO=132p VJ=0.750 M=0.330 TT=50.1n )
.MODEL DR D ( IS=4.85f RS=44.5 N=3.00 )
.ENDS

*SRC=AZ23C5V6;AZ23C5V6;Diodes;Zener <=10V; 5.60V  0.300W   Diodes Inc. Per node.  Device contains two
.SUBCKT AZ23C5V6  1 2
*        Terminals    A   K
D1 1 2 DF
DZ 3 1 DR
VZ 2 3 3.32
.MODEL DF D ( IS=22.1p RS=33.2 N=1.10 CJO=102p VJ=0.750 M=0.330 TT=50.1n )
.MODEL DR D ( IS=4.41f RS=24.5 N=3.00 )
.ENDS

*SRC=AZ23C5V6W;AZ23C5V6W;Diodes;Zener <=10V; 5.60V  0.200W   Diodes Inc. Per node.  Device contains two
.SUBCKT AZ23C5V6W  1 2
*        Terminals    A   K
D1 1 2 DF
DZ 3 1 DR
VZ 2 3 3.29
.MODEL DF D ( IS=14.7p RS=32.1 N=1.10 CJO=102p VJ=0.750 M=0.330 TT=50.1n )
.MODEL DR D ( IS=2.94f RS=24.5 N=3.00 )
.ENDS

*SRC=AZ23C6V2;AZ23C6V2;Diodes;Zener <=10V; 6.20V  0.300W   Diodes Inc. Per node.  Device contains two
.SUBCKT AZ23C6V2  1 2
*        Terminals    A   K
D1 1 2 DF
DZ 3 1 DR
VZ 2 3 5.12
.MODEL DF D ( IS=19.9p RS=32.9 N=1.10 CJO=79.4p VJ=0.750 M=0.330 TT=50.1n )
.MODEL DR D ( IS=3.99f RS=2.30 N=1.49 )
.ENDS

*SRC=AZ23C6V8;AZ23C6V8;Diodes;Zener <=10V; 6.80V  0.300W   Diodes Inc. Per node.  Device contains two
.SUBCKT AZ23C6V8  1 2
*        Terminals    A   K
D1 1 2 DF
DZ 3 1 DR
VZ 2 3 5.93
.MODEL DF D ( IS=18.2p RS=32.7 N=1.10 CJO=72.7p VJ=0.750 M=0.330 TT=50.1n )
.MODEL DR D ( IS=3.64f RS=1.84 N=1.19 )
.ENDS

*SRC=AZ23C6V8W;AZ23C6V8W;Diodes;Zener <=10V; 6.80V  0.200W   Diodes Inc. Per node.  Device contains two
.SUBCKT AZ23C6V8W  1 2
*        Terminals    A   K
D1 1 2 DF
DZ 3 1 DR
VZ 2 3 5.15
.MODEL DF D ( IS=12.1p RS=31.5 N=1.10 CJO=72.7p VJ=0.750 M=0.330 TT=50.1n )
.MODEL DR D ( IS=2.42f RS=3.45 N=2.23 )
.ENDS

*SRC=AZ23C7V5;AZ23C7V5;Diodes;Zener <=10V; 7.50V  0.300W   Diodes Inc. Per node.  Device contains two
.SUBCKT AZ23C7V5  1 2
*        Terminals    A   K
D1 1 2 DF
DZ 3 1 DR
VZ 2 3 6.74
.MODEL DF D ( IS=16.5p RS=32.4 N=1.10 CJO=59.5p VJ=0.750 M=0.330 TT=50.1n )
.MODEL DR D ( IS=3.30f RS=1.61 N=1.04 )
.ENDS

*SRC=AZ23C8V2;AZ23C8V2;Diodes;Zener <=10V; 8.20V  0.300W   Diodes Inc. Per node.  Device contains two
.SUBCKT AZ23C8V2  1 2
*        Terminals    A   K
D1 1 2 DF
DZ 3 1 DR
VZ 2 3 7.43
.MODEL DF D ( IS=15.1p RS=32.1 N=1.10 CJO=54.2p VJ=0.750 M=0.330 TT=50.1n )
.MODEL DR D ( IS=3.01f RS=1.61 N=1.04 )
.ENDS

*SRC=AZ23C9V1;AZ23C9V1;Diodes;Zener <=10V; 9.10V  0.300W   Diodes Inc. Per node.  Device contains two
.SUBCKT AZ23C9V1  1 2
*        Terminals    A   K
D1 1 2 DF
DZ 3 1 DR
VZ 2 3 8.00
.MODEL DF D ( IS=13.6p RS=31.8 N=1.10 CJO=48.9p VJ=0.750 M=0.330 TT=50.1n )
.MODEL DR D ( IS=2.72f RS=2.30 N=1.49 )
.ENDS

*SRC=BZT52C10;BZT52C10;Diodes;Zener <=10V; 10.0V  0.500W   Diodes Inc. Zener 
*SYM=HZEN 
.SUBCKT BZT52C10  1 2 
*        Terminals    A   K 
D1 1 2 DF 
DZ 3 1 DR 
VZ 2 3 7.84 
.MODEL DF D ( IS=20.6p RS=1.22 N=1.10  CJO=45.6p VJ=0.750 M=0.330 TT=50.1n ) 
.MODEL DR D ( IS=4.12f RS=4.60 N=2.97 ) 
.ENDS

*SRC=BZT52C9V1LP;BZT52C9V1LP;Diodes;Zener <=10V; 9.10V  0.250W   Diodes Inc. QFN Zener
.SUBCKT BZT52C9V1LP  1 2
*        Terminals    A   K
D1 1 2 DF
DZ 3 1 DR
VZ 2 3 7.44
.MODEL DF D ( IS=11.3p RS=31.3 N=1.10 CJO=50.3p VJ=0.750 M=0.330 TT=50.1n )
.MODEL DR D ( IS=2.26f RS=3.45 N=2.23 )
.ENDS

*SRC=BZT52C10S;BZT52C10S;Diodes;Zener <=10V; 10.0V  0.200W   Diodes Inc. ZENER
.SUBCKT BZT52C10S  1 2
*        Terminals    A   K
D1 1 2 DF
DZ 3 1 DR
VZ 2 3 7.76
.MODEL DF D ( IS=8.24p RS=30.4 N=1.10 CJO=47.6p VJ=0.750 M=0.330 TT=50.1n )
.MODEL DR D ( IS=1.65f RS=4.60 N=2.97 )
.ENDS

*SRC=BZT52C10T;BZT52C10T;Diodes;Zener <=10V; 10.0V  0.500W   Diodes Inc. Zener 
*SYM=HZEN 
.SUBCKT BZT52C10T  1 2 
*        Terminals    A   K 
D1 1 2 DF 
DZ 3 1 DR 
VZ 2 3 7.84 
.MODEL DF D ( IS=20.6p RS=1.22 N=1.10  CJO=45.6p VJ=0.750 M=0.330 TT=50.1n ) 
.MODEL DR D ( IS=4.12f RS=4.60 N=2.97 ) 
.ENDS

*SRC=BZT52C11;BZT52C11;Diodes;Zener 10V-50V; 11.0V  0.500W   Diodes Inc.
.SUBCKT BZT52C11  1 2
*        Terminals    A   K
D1 1 2 DF
DZ 3 1 DR
VZ 2 3 8.83
.MODEL DF D ( IS=18.7p RS=32.7 N=1.10 CJO=44.0p VJ=1.00 M=0.330 TT=50.1n )
.MODEL DR D ( IS=3.75f RS=4.60 N=2.97 )
.ENDS

*SRC=BZT52C11LP;BZT52C11LP;Diodes;Zener 10V-50V; 11.0V  0.250W   Diodes Inc. QFN Zener
.SUBCKT BZT52C11LP  1 2
*        Terminals    A   K
D1 1 2 DF
DZ 3 1 DR
VZ 2 3 8.77
.MODEL DF D ( IS=9.36p RS=30.8 N=1.10 CJO=33.9p VJ=1.00 M=0.330 TT=50.1n )
.MODEL DR D ( IS=1.87f RS=4.60 N=2.97 )
.ENDS

*SRC=BZT52C11S;BZT52C11S;Diodes;Zener 10V-50V; 11.0V  0.200W   Diodes Inc. ZENER
.SUBCKT BZT52C11S  1 2
*        Terminals    A   K
D1 1 2 DF
DZ 3 1 DR
VZ 2 3 8.76
.MODEL DF D ( IS=7.49p RS=30.1 N=1.10 CJO=44.0p VJ=1.00 M=0.330 TT=50.1n )
.MODEL DR D ( IS=1.50f RS=4.60 N=2.97 )
.ENDS

*SRC=BZT52C11T;BZT52C11T;Diodes;Zener 10V-50V; 11.0V  0.500W   Diodes Inc.
.SUBCKT BZT52C11T  1 2
*        Terminals    A   K
D1 1 2 DF
DZ 3 1 DR
VZ 2 3 8.83
.MODEL DF D ( IS=18.7p RS=32.7 N=1.10 CJO=44.0p VJ=1.00 M=0.330 TT=50.1n )
.MODEL DR D ( IS=3.75f RS=4.60 N=2.97 )
.ENDS

*SRC=BZT52C12;BZT52C12;Diodes;Zener 10V-50V; 12.0V  0.500W   Diodes Inc.
.SUBCKT BZT52C12  1 2
*        Terminals    A   K
D1 1 2 DF
DZ 3 1 DR
VZ 2 3 9.78
.MODEL DF D ( IS=17.2p RS=32.5 N=1.10 CJO=42.7p VJ=1.00 M=0.330 TT=50.1n )
.MODEL DR D ( IS=3.43f RS=9.46 N=3.00 )
.ENDS

*SRC=BZT52C12LP;BZT52C12LP;Diodes;Zener 10V-50V; 12.0V  0.250W   Diodes Inc. QFN Zener
.SUBCKT BZT52C12LP  1 2
*        Terminals    A   K
D1 1 2 DF
DZ 3 1 DR
VZ 2 3 9.72
.MODEL DF D ( IS=8.58p RS=30.5 N=1.10 CJO=31.4p VJ=1.00 M=0.330 TT=50.1n )
.MODEL DR D ( IS=1.72f RS=9.46 N=3.00 )
.ENDS

*SRC=BZT52C12S;BZT52C12S;Diodes;Zener 10V-50V; 12.0V  0.200W   Diodes Inc. ZENER
.SUBCKT BZT52C12S  1 2
*        Terminals    A   K
D1 1 2 DF
DZ 3 1 DR
VZ 2 3 9.71
.MODEL DF D ( IS=6.87p RS=29.9 N=1.10 CJO=42.7p VJ=1.00 M=0.330 TT=50.1n )
.MODEL DR D ( IS=1.37f RS=9.46 N=3.00 )
.ENDS

*SRC=BZT52C12T;BZT52C12T;Diodes;Zener 10V-50V; 12.0V  0.500W   Diodes Inc.
.SUBCKT BZT52C12T  1 2
*        Terminals    A   K
D1 1 2 DF
DZ 3 1 DR
VZ 2 3 9.78
.MODEL DF D ( IS=17.2p RS=32.5 N=1.10 CJO=42.7p VJ=1.00 M=0.330 TT=50.1n )
.MODEL DR D ( IS=3.43f RS=9.46 N=3.00 )
.ENDS

*SRC=BZT52C13;BZT52C13;Diodes;Zener 10V-50V; 13.0V  0.500W   Diodes Inc. Zener 
*SYM=HZEN 
.SUBCKT BZT52C13  1 2 
*        Terminals    A   K 
D1 1 2 DF 
DZ 3 1 DR 
VZ 2 3 12.4 
.MODEL DF D ( IS=15.8p RS=1.24 N=1.10  CJO=51.5p VJ=1.00 M=0.330 TT=50.1n ) 
.MODEL DR D ( IS=3.17f RS=1.26 N=0.814 ) 
.ENDS

*SRC=BZT52C13LP;BZT52C13LP;Diodes;Zener 10V-50V; 13.0V  0.250W   Diodes Inc. QFN Zener
.SUBCKT BZT52C13LP  1 2
*        Terminals    A   K
D1 1 2 DF
DZ 3 1 DR
VZ 2 3 10.7
.MODEL DF D ( IS=7.92p RS=30.3 N=1.10 CJO=26.4p VJ=1.00 M=0.330 TT=50.1n )
.MODEL DR D ( IS=1.58f RS=14.5 N=3.00 )
.ENDS

*SRC=BZT52C13S;BZT52C13S;Diodes;Zener 10V-50V; 13.0V  0.200W   Diodes Inc. ZENER
.SUBCKT BZT52C13S  1 2
*        Terminals    A   K
D1 1 2 DF
DZ 3 1 DR
VZ 2 3 10.7
.MODEL DF D ( IS=6.34p RS=29.7 N=1.10 CJO=25.8p VJ=1.00 M=0.330 TT=50.1n )
.MODEL DR D ( IS=1.27f RS=14.5 N=3.00 )
.ENDS

*SRC=BZT52C13T;BZT52C13T;Diodes;Zener 10V-50V; 13.0V  0.500W   Diodes Inc. Zener 
*SYM=HZEN 
.SUBCKT BZT52C13T  1 2 
*        Terminals    A   K 
D1 1 2 DF 
DZ 3 1 DR 
VZ 2 3 12.4 
.MODEL DF D ( IS=15.8p RS=1.24 N=1.10  CJO=51.5p VJ=1.00 M=0.330 TT=50.1n ) 
.MODEL DR D ( IS=3.17f RS=1.26 N=0.814 ) 
.ENDS

*SRC=BZT52C15;BZT52C15;Diodes;Zener 10V-50V; 15.0V  0.500W   Diodes Inc.
.SUBCKT BZT52C15  1 2
*        Terminals    A   K
D1 1 2 DF
DZ 3 1 DR
VZ 2 3 12.7
.MODEL DF D ( IS=13.7p RS=31.9 N=1.10 CJO=32.7p VJ=1.00 M=0.330 TT=50.1n )
.MODEL DR D ( IS=2.75f RS=14.5 N=3.00 )
.ENDS

*SRC=BZT52C15LP;BZT52C15LP;Diodes;Zener 10V-50V; 15.0V  0.250W   Diodes Inc. QFN Zener
.SUBCKT BZT52C15LP  1 2
*        Terminals    A   K
D1 1 2 DF
DZ 3 1 DR
VZ 2 3 12.7
.MODEL DF D ( IS=6.87p RS=29.9 N=1.10 CJO=25.5p VJ=1.00 M=0.330 TT=50.1n )
.MODEL DR D ( IS=1.37f RS=14.5 N=3.00 )
.ENDS

*SRC=BZT52C15S;BZT52C15S;Diodes;Zener 10V-50V; 15.0V  0.200W   Diodes Inc. ZENER
.SUBCKT BZT52C15S  1 2
*        Terminals    A   K
D1 1 2 DF
DZ 3 1 DR
VZ 2 3 12.7
.MODEL DF D ( IS=5.49p RS=29.3 N=1.10 CJO=25.5p VJ=1.00 M=0.330 TT=50.1n )
.MODEL DR D ( IS=1.10f RS=14.5 N=3.00 )
.ENDS

*SRC=BZT52C15T;BZT52C15T;Diodes;Zener 10V-50V; 15.0V  0.500W   Diodes Inc.
.SUBCKT BZT52C15T  1 2
*        Terminals    A   K
D1 1 2 DF
DZ 3 1 DR
VZ 2 3 12.7
.MODEL DF D ( IS=13.7p RS=31.9 N=1.10 CJO=32.7p VJ=1.00 M=0.330 TT=50.1n )
.MODEL DR D ( IS=2.75f RS=14.5 N=3.00 )
.ENDS

*SRC=BZT52C16;BZT52C16;Diodes;Zener 10V-50V; 16.0V  0.500W   Diodes Inc.
.SUBCKT BZT52C16  1 2
*        Terminals    A   K
D1 1 2 DF
DZ 3 1 DR
VZ 2 3 13.7
.MODEL DF D ( IS=12.9p RS=31.7 N=1.10 CJO=31.4p VJ=1.00 M=0.330 TT=50.1n )
.MODEL DR D ( IS=2.58f RS=24.5 N=3.00 )
.ENDS

*SRC=BZT52C16LP;BZT52C16LP;Diodes;Zener 10V-50V; 16.0V  0.250W   Diodes Inc. QFN Zener
.SUBCKT BZT52C16LP  1 2
*        Terminals    A   K
D1 1 2 DF
DZ 3 1 DR
VZ 2 3 13.6
.MODEL DF D ( IS=6.44p RS=29.7 N=1.10 CJO=25.1p VJ=1.00 M=0.330 TT=50.1n )
.MODEL DR D ( IS=1.29f RS=24.5 N=3.00 )
.ENDS

*SRC=BZT52C16S;BZT52C16S;Diodes;Zener 10V-50V; 16.0V  0.200W   Diodes Inc. ZENER
.SUBCKT BZT52C16S  1 2
*        Terminals    A   K
D1 1 2 DF
DZ 3 1 DR
VZ 2 3 13.6
.MODEL DF D ( IS=5.15p RS=29.1 N=1.10 CJO=25.4p VJ=1.00 M=0.330 TT=50.1n )
.MODEL DR D ( IS=1.03f RS=24.5 N=3.00 )
.ENDS
