***********************************************
*ELECTRONICS WORKBENCH MODEL FILE             * 
*MODELS GENERATED BY: S.MOORE/R.TALOS         *
*(c) 1996 INTERACTIVE IMAGE TECHNOLOGIES LTD. * 
*TORONTO, ONTARIO (416)977-5550.              *
***********************************************
.MODEL IRF120 NMOS (
+   VTO =  0.40075
+   KP =  1.045e-06
+   LAMBDA =  0
+   PHI =  0.6
+   GAMMA =  0
+   RD =  0.001
+   RS =  0.01
+   IS =  1e-14
+   CGBO =  0
+   CGDO =  1.9205e-10
+   CGSO =  5.684e-10
+   CBD =  3.969e-10
+   CBS =  0
+   PB =  0.8
+   RSH =  0
+   CJ =  0
+   MJ =  0.5
+   CJSW =  0
+   MJSW =  0.5
+   JS =  0
+   TOX =  2e-06
+   NSUB =  0
+   NSS =  0
+   TPG =  1
+   LD =  0
+   U0 =  600
+   KF =  0
+   AF =  1
+   FC =  0.5
+   TNOM =  27
)

.MODEL IRF360 NMOS (
+   VTO =  0
+   KP =  2e-05
+   LAMBDA =  0
+   PHI =  0.6
+   GAMMA =  0
+   RD =  0
+   RS =  0
+   IS =  1e-14
+   CGBO =  0
+   CGDO =  0
+   CGSO =  0
+   CBD =  0
+   CBS =  0
+   PB =  0.8
+   RSH =  0
+   CJ =  0
+   MJ =  0.5
+   CJSW =  0
+   MJSW =  0.5
+   JS =  0
+   TOX =  1e-07
+   NSUB =  0
+   NSS =  0
+   TPG =  1
+   LD =  0
+   U0 =  600
+   KF =  0
+   AF =  1
+   FC =  0.5
+   TNOM =  27
)

.MODEL IRF614 NMOS (
+   VTO =  3.0044
+   KP =  1.031e-06
+   LAMBDA =  0
+   PHI =  0.6
+   GAMMA =  0
+   RD =  1.3933
+   RS =  0.01
+   IS =  1e-14
+   CGBO =  0
+   CGDO =  4.5843e-11
+   CGSO =  3.4862e-10
+   CBD =  1.2226e-10
+   CBS =  0
+   PB =  0.8
+   RSH =  0
+   CJ =  0
+   MJ =  0.5
+   CJSW =  0
+   MJSW =  0.5
+   JS =  0
+   TOX =  2e-06
+   NSUB =  0
+   NSS =  0
+   TPG =  1
+   LD =  0
+   U0 =  600
+   KF =  0
+   AF =  1
+   FC =  0.5
+   TNOM =  27
)

.MODEL IRF620 NMOS (
+   VTO =  2.8776
+   KP =  1.039e-06
+   LAMBDA =  0
+   PHI =  0.6
+   GAMMA =  0
+   RD =  0.37542
+   RS =  0.01
+   IS =  1e-14
+   CGBO =  0
+   CGDO =  7.041e-11
+   CGSO =  3.922e-10
+   CBD =  3.2077e-10
+   CBS =  0
+   PB =  0.8
+   RSH =  0
+   CJ =  0
+   MJ =  0.5
+   CJSW =  0
+   MJSW =  0.5
+   JS =  0
+   TOX =  2e-06
+   NSUB =  0
+   NSS =  0
+   TPG =  1
+   LD =  0
+   U0 =  600
+   KF =  0
+   AF =  1
+   FC =  0.5
+   TNOM =  27
)

.MODEL IRF624 NMOS (
+   VTO =  2.5021
+   KP =  1.0371e-06
+   LAMBDA =  0
+   PHI =  0.6
+   GAMMA =  0
+   RD =  0.77235
+   RS =  0.01
+   IS =  1e-14
+   CGBO =  0
+   CGDO =  4.6166e-11
+   CGSO =  3.639e-10
+   CBD =  2.3522e-10
+   CBS =  0
+   PB =  0.8
+   RSH =  0
+   CJ =  0
+   MJ =  0.5
+   CJSW =  0
+   MJSW =  0.5
+   JS =  0
+   TOX =  2e-06
+   NSUB =  0
+   NSS =  0
+   TPG =  1
+   LD =  0
+   U0 =  600
+   KF =  0
+   AF =  1
+   FC =  0.5
+   TNOM =  27
)

.MODEL IRF634 NMOS (
+   VTO =  -2.384
+   KP =  1.0368e-06
+   LAMBDA =  0
+   PHI =  0.6
+   GAMMA =  0
+   RD =  0.10382
+   RS =  0.01
+   IS =  1e-14
+   CGBO =  0
+   CGDO =  2.2642e-10
+   CGSO =  2.6157e-09
+   CBD =  4.8668e-10
+   CBS =  0
+   PB =  0.8
+   RSH =  0
+   CJ =  0
+   MJ =  0.5
+   CJSW =  0
+   MJSW =  0.5
+   JS =  0
+   TOX =  2e-06
+   NSUB =  0
+   NSS =  0
+   TPG =  1
+   LD =  0
+   U0 =  600
+   KF =  0
+   AF =  1
+   FC =  0.5
+   TNOM =  27
)

.MODEL IRF640 NMOS (
+   VTO =  2.9634
+   KP =  1.0418e-06
+   LAMBDA =  0
+   PHI =  0.6
+   GAMMA =  0
+   RD =  0.10506
+   RS =  0.01
+   IS =  1e-14
+   CGBO =  0
+   CGDO =  5.5208e-11
+   CGSO =  3.7295e-10
+   CBD =  1.1994e-09
+   CBS =  0
+   PB =  0.8
+   RSH =  0
+   CJ =  0
+   MJ =  0.5
+   CJSW =  0
+   MJSW =  0.5
+   JS =  0
+   TOX =  2e-06
+   NSUB =  0
+   NSS =  0
+   TPG =  1
+   LD =  0
+   U0 =  600
+   KF =  0
+   AF =  1
+   FC =  0.5
+   TNOM =  27
)

.MODEL IRF644 NMOS (
+   VTO =  3.3337
+   KP =  1.0405e-06
+   LAMBDA =  0
+   PHI =  0.6
+   GAMMA =  0
+   RD =  0.21884
+   RS =  0.01
+   IS =  1e-14
+   CGBO =  0
+   CGDO =  2.9865e-11
+   CGSO =  2.9319e-10
+   CBD =  9.5696e-10
+   CBS =  0
+   PB =  0.8
+   RSH =  0
+   CJ =  0
+   MJ =  0.5
+   CJSW =  0
+   MJSW =  0.5
+   JS =  0
+   TOX =  2e-06
+   NSUB =  0
+   NSS =  0
+   TPG =  1
+   LD =  0
+   U0 =  600
+   KF =  0
+   AF =  1
+   FC =  0.5
+   TNOM =  27
)

.MODEL IRF710 NMOS (
+   VTO =  -3.9
+   KP =  1.0369e-06
+   LAMBDA =  0
+   PHI =  0.6
+   GAMMA =  0
+   RD =  3.4194
+   RS =  0.01
+   IS =  1e-14
+   CGBO =  0
+   CGDO =  3.2614e-11
+   CGSO =  1.2195e-14
+   CBD =  1.1496e-10
+   CBS =  0
+   PB =  0.8
+   RSH =  0
+   CJ =  0
+   MJ =  0.5
+   CJSW =  0
+   MJSW =  0.5
+   JS =  0
+   TOX =  2e-06
+   NSUB =  0
+   NSS =  0
+   TPG =  1
+   LD =  0
+   U0 =  600
+   KF =  0
+   AF =  1
+   FC =  0.5
+   TNOM =  27
)

.MODEL IRF730 NMOS (
+   VTO =  1.0531
+   KP =  1.0396e-06
+   LAMBDA =  0
+   PHI =  0.6
+   GAMMA =  0
+   RD =  0.90568
+   RS =  0.01
+   IS =  1e-14
+   CGBO =  0
+   CGDO =  2.6556e-11
+   CGSO =  6.1381e-10
+   CBD =  5.8873e-10
+   CBS =  0
+   PB =  0.8
+   RSH =  0
+   CJ =  0
+   MJ =  0.5
+   CJSW =  0
+   MJSW =  0.5
+   JS =  0
+   TOX =  2e-06
+   NSUB =  0
+   NSS =  0
+   TPG =  1
+   LD =  0
+   U0 =  600
+   KF =  0
+   AF =  1
+   FC =  0.5
+   TNOM =  27
)

.MODEL IRF740 NMOS (
+   VTO =  3.1164
+   KP =  1.0396e-06
+   LAMBDA =  0
+   PHI =  0.6
+   GAMMA =  0
+   RD =  0.42583
+   RS =  0.01
+   IS =  1e-14
+   CGBO =  0
+   CGDO =  3.8819e-11
+   CGSO =  4.4765e-10
+   CBD =  1.3436e-09
+   CBS =  0
+   PB =  0.8
+   RSH =  0
+   CJ =  0
+   MJ =  0.5
+   CJSW =  0
+   MJSW =  0.5
+   JS =  0
+   TOX =  2e-06
+   NSUB =  0
+   NSS =  0
+   TPG =  1
+   LD =  0
+   U0 =  600
+   KF =  0
+   AF =  1
+   FC =  0.5
+   TNOM =  27
)

.MODEL IRF820 NMOS (
+   VTO =  2.743
+   KP =  1.0307e-06
+   LAMBDA =  0
+   PHI =  0.6
+   GAMMA =  0
+   RD =  2.8079
+   RS =  0.01
+   IS =  1e-14
+   CGBO =  0
+   CGDO =  2.1744e-11
+   CGSO =  3.8456e-10
+   CBD =  3.4637e-10
+   CBS =  0
+   PB =  0.8
+   RSH =  0
+   CJ =  0
+   MJ =  0.5
+   CJSW =  0
+   MJSW =  0.5
+   JS =  0
+   TOX =  2e-06
+   NSUB =  0
+   NSS =  0
+   TPG =  1
+   LD =  0
+   U0 =  600
+   KF =  0
+   AF =  1
+   FC =  0.5
+   TNOM =  27
)

.MODEL IRFP140 NMOS (
+   VTO =  0.82622
+   KP =  1.0355e-06
+   LAMBDA =  0
+   PHI =  0.6
+   GAMMA =  0
+   RD =  0.029695
+   RS =  0.01
+   IS =  1e-14
+   CGBO =  0
+   CGDO =  6.8736e-11
+   CGSO =  3.9743e-10
+   CBD =  1
+   CBS =  0
+   PB =  0.3905
+   RSH =  0
+   CJ =  0
+   MJ =  1.5
+   CJSW =  0
+   MJSW =  0.5
+   JS =  0
+   TOX =  2e-06
+   NSUB =  0
+   NSS =  0
+   TPG =  1
+   LD =  0
+   U0 =  600
+   KF =  0
+   AF =  1
+   FC =  0.5
+   TNOM =  27
)

.MODEL IRFP150 NMOS (
+   VTO =  2.5692
+   KP =  1.0385e-06
+   LAMBDA =  0
+   PHI =  0.6
+   GAMMA =  0
+   RD =  0.011909
+   RS =  0.01
+   IS =  1e-14
+   CGBO =  0
+   CGDO =  1.032e-10
+   CGSO =  4.4543e-10
+   CBD =  2.0984e-09
+   CBS =  0
+   PB =  0.8
+   RSH =  0
+   CJ =  0
+   MJ =  0.5
+   CJSW =  0
+   MJSW =  0.5
+   JS =  0
+   TOX =  2e-06
+   NSUB =  0
+   NSS =  0
+   TPG =  1
+   LD =  0
+   U0 =  600
+   KF =  0
+   AF =  1
+   FC =  0.5
+   TNOM =  27
)

.MODEL IRFP240 NMOS (
+   VTO =  3.4969
+   KP =  1.0403e-06
+   LAMBDA =  0
+   PHI =  0.6
+   GAMMA =  0
+   RD =  0.096466
+   RS =  0.01
+   IS =  1e-14
+   CGBO =  0
+   CGDO =  5.648e-11
+   CGSO =  3.4853e-10
+   CBD =  1.0416e-09
+   CBS =  0
+   PB =  0.8
+   RSH =  0
+   CJ =  0
+   MJ =  0.5
+   CJSW =  0
+   MJSW =  0.5
+   JS =  0
+   TOX =  2e-06
+   NSUB =  0
+   NSS =  0
+   TPG =  1
+   LD =  0
+   U0 =  600
+   KF =  0
+   AF =  1
+   FC =  0.5
+   TNOM =  27
)

.MODEL IRFP244 NMOS (
+   VTO =  4.2578
+   KP =  1.0418e-06
+   LAMBDA =  0
+   PHI =  0.6
+   GAMMA =  0
+   RD =  0.20487
+   RS =  0.01
+   IS =  1e-14
+   CGBO =  0
+   CGDO =  3.5789e-11
+   CGSO =  2.6937e-10
+   CBD =  8.1718e-10
+   CBS =  0
+   PB =  0.8
+   RSH =  0
+   CJ =  0
+   MJ =  0.5
+   CJSW =  0
+   MJSW =  0.5
+   JS =  0
+   TOX =  2e-06
+   NSUB =  0
+   NSS =  0
+   TPG =  1
+   LD =  0
+   U0 =  600
+   KF =  0
+   AF =  1
+   FC =  0.5
+   TNOM =  27
)

.MODEL IRFP250 NMOS (
+   VTO =  2.8614
+   KP =  1.0331e-06
+   LAMBDA =  0
+   PHI =  0.6
+   GAMMA =  0
+   RD =  0.046098
+   RS =  0.01
+   IS =  1e-14
+   CGBO =  0
+   CGDO =  4.6987e-11
+   CGSO =  4.0737e-10
+   CBD =  2.0177e-09
+   CBS =  0
+   PB =  0.8
+   RSH =  0
+   CJ =  0
+   MJ =  0.5
+   CJSW =  0
+   MJSW =  0.5
+   JS =  0
+   TOX =  2e-06
+   NSUB =  0
+   NSS =  0
+   TPG =  1
+   LD =  0
+   U0 =  600
+   KF =  0
+   AF =  1
+   FC =  0.5
+   TNOM =  27
)

.MODEL IRFP254 NMOS (
+   VTO =  2.7227
+   KP =  9.9194e-07
+   LAMBDA =  0
+   PHI =  0.6
+   GAMMA =  0
+   RD =  0.10364
+   RS =  0.01
+   IS =  1e-14
+   CGBO =  0
+   CGDO =  3.2599e-11
+   CGSO =  3.5029e-10
+   CBD =  1.6435e-09
+   CBS =  0
+   PB =  0.8
+   RSH =  0
+   CJ =  0
+   MJ =  0.5
+   CJSW =  0
+   MJSW =  0.5
+   JS =  0
+   TOX =  2e-06
+   NSUB =  0
+   NSS =  0
+   TPG =  1
+   LD =  0
+   U0 =  600
+   KF =  0
+   AF =  1
+   FC =  0.5
+   TNOM =  27
)

.MODEL IRFP340 NMOS (
+   VTO =  3.9032
+   KP =  1.0545e-06
+   LAMBDA =  0
+   PHI =  0.6
+   GAMMA =  0
+   RD =  0.50799
+   RS =  0.01
+   IS =  1e-14
+   CGBO =  0
+   CGDO =  9.4058e-12
+   CGSO =  1.3544e-10
+   CBD =  1.7654e-09
+   CBS =  0
+   PB =  0.8
+   RSH =  0
+   CJ =  0
+   MJ =  0.5
+   CJSW =  0
+   MJSW =  0.5
+   JS =  0
+   TOX =  2e-06
+   NSUB =  0
+   NSS =  0
+   TPG =  1
+   LD =  0
+   U0 =  600
+   KF =  0
+   AF =  1
+   FC =  0.5
+   TNOM =  27
)

.MODEL IRFP350 NMOS (
+   VTO =  3.1364
+   KP =  1.0717e-06
+   LAMBDA =  0
+   PHI =  0.6
+   GAMMA =  0
+   RD =  0.26663
+   RS =  0.01
+   IS =  1e-14
+   CGBO =  0
+   CGDO =  2.092e-11
+   CGSO =  3.2083e-10
+   CBD =  2.4017e-09
+   CBS =  0
+   PB =  0.8
+   RSH =  0
+   CJ =  0
+   MJ =  0.5
+   CJSW =  0
+   MJSW =  0.5
+   JS =  0
+   TOX =  2e-06
+   NSUB =  0
+   NSS =  0
+   TPG =  1
+   LD =  0
+   U0 =  600
+   KF =  0
+   AF =  1
+   FC =  0.5
+   TNOM =  27
)

.MODEL IRFP360 NMOS (
+   VTO =  2.9304
+   KP =  1.0516e-06
+   LAMBDA =  0
+   PHI =  0.6
+   GAMMA =  0
+   RD =  0.17451
+   RS =  0.01
+   IS =  1e-14
+   CGBO =  0
+   CGDO =  1.9175e-11
+   CGSO =  2.8897e-10
+   CBD =  4.3964e-09
+   CBS =  0
+   PB =  0.8
+   RSH =  0
+   CJ =  0
+   MJ =  0.5
+   CJSW =  0
+   MJSW =  0.5
+   JS =  0
+   TOX =  2e-06
+   NSUB =  0
+   NSS =  0
+   TPG =  1
+   LD =  0
+   U0 =  600
+   KF =  0
+   AF =  1
+   FC =  0.5
+   TNOM =  27
)

.MODEL IRFP440 NMOS (
+   VTO =  3.3146
+   KP =  1.0368e-06
+   LAMBDA =  0
+   PHI =  0.6
+   GAMMA =  0
+   RD =  0.78789
+   RS =  0.01
+   IS =  1e-14
+   CGBO =  0
+   CGDO =  1.3205e-11
+   CGSO =  3.0523e-10
+   CBD =  1.349e-09
+   CBS =  0
+   PB =  0.8
+   RSH =  0
+   CJ =  0
+   MJ =  0.5
+   CJSW =  0
+   MJSW =  0.5
+   JS =  0
+   TOX =  2e-06
+   NSUB =  0
+   NSS =  0
+   TPG =  1
+   LD =  0
+   U0 =  600
+   KF =  0
+   AF =  1
+   FC =  0.5
+   TNOM =  27
)

.MODEL IRFP450 NMOS (
+   VTO =  2.9234
+   KP =  1.043e-06
+   LAMBDA =  0
+   PHI =  0.6
+   GAMMA =  0
+   RD =  0.36683
+   RS =  0.01
+   IS =  1e-14
+   CGBO =  0
+   CGDO =  1.6717e-11
+   CGSO =  2.9485e-10
+   CBD =  3.0046e-09
+   CBS =  0
+   PB =  0.8
+   RSH =  0
+   CJ =  0
+   MJ =  0.5
+   CJSW =  0
+   MJSW =  0.5
+   JS =  0
+   TOX =  2e-06
+   NSUB =  0
+   NSS =  0
+   TPG =  1
+   LD =  0
+   U0 =  600
+   KF =  0
+   AF =  1
+   FC =  0.5
+   TNOM =  27
)

.MODEL IRFP460 NMOS (
+   VTO =  2.7618
+   KP =  1.0337e-06
+   LAMBDA =  0
+   PHI =  0.6
+   GAMMA =  0
+   RD =  0.2447
+   RS =  0.01
+   IS =  1e-14
+   CGBO =  0
+   CGDO =  1.5323e-11
+   CGSO =  2.9781e-10
+   CBD =  3.4434e-09
+   CBS =  0
+   PB =  0.8
+   RSH =  0
+   CJ =  0
+   MJ =  0.5
+   CJSW =  0
+   MJSW =  0.5
+   JS =  0
+   TOX =  2e-06
+   NSUB =  0
+   NSS =  0
+   TPG =  1
+   LD =  0
+   U0 =  600
+   KF =  0
+   AF =  1
+   FC =  0.5
+   TNOM =  27
)

.MODEL IRFR110 NMOS (
+   VTO =  1.6282
+   KP =  1.0376e-06
+   LAMBDA =  0
+   PHI =  0.6
+   GAMMA =  0
+   RD =  0.28499
+   RS =  0.01
+   IS =  1e-14
+   CGBO =  0
+   CGDO =  5.0882e-11
+   CGSO =  2.8481e-10
+   CBD =  2.1006e-10
+   CBS =  0
+   PB =  0.8
+   RSH =  0
+   CJ =  0
+   MJ =  0.5
+   CJSW =  0
+   MJSW =  0.5
+   JS =  0
+   TOX =  2e-06
+   NSUB =  0
+   NSS =  0
+   TPG =  1
+   LD =  0
+   U0 =  600
+   KF =  0
+   AF =  1
+   FC =  0.5
+   TNOM =  27
)

.MODEL IRFR220 NMOS (
+   VTO =  2.3497
+   KP =  1.0313e-06
+   LAMBDA =  0
+   PHI =  0.6
+   GAMMA =  0
+   RD =  0.52187
+   RS =  0.01
+   IS =  1e-14
+   CGBO =  0
+   CGDO =  5.0452e-11
+   CGSO =  3.6517e-10
+   CBD =  3.1349e-10
+   CBS =  0
+   PB =  0.8
+   RSH =  0
+   CJ =  0
+   MJ =  0.5
+   CJSW =  0
+   MJSW =  0.5
+   JS =  0
+   TOX =  2e-06
+   NSUB =  0
+   NSS =  0
+   TPG =  1
+   LD =  0
+   U0 =  600
+   KF =  0
+   AF =  1
+   FC =  0.5
+   TNOM =  27
)
