***********************************************
*ELECTRONICS WORKBENCH MODEL FILE             * 
*MODELS GENERATED BY: R.TALOS                 *
*(c) 1996 INTERACTIVE IMAGE TECHNOLOGIES LTD. * 
*TORONTO, ONTARIO (416)977-5550.              *
***********************************************
.MODEL M2DK1488 NMOS (
+   VTO =  2.03
+   KP =  1.0553e-06
+   LAMBDA =  0
+   PHI =  0.6
+   GAMMA =  0
+   RD =  0.62163
+   RS =  0.01
+   IS =  0.0029462
+   CGBO =  0
+   CGDO =  5.7261e-09
+   CGSO =  4.7619e-15
+   CBD =  8.7607e-10
+   CBS =  0
+   PB =  0.8
+   RSH =  0
+   CJ =  0
+   MJ =  0.83027
+   CJSW =  0
+   MJSW =  0.5
+   JS =  0
+   TOX =  2e-06
+   NSUB =  0
+   NSS =  0
+   TPG =  1
+   LD =  0
+   U0 =  600
+   KF =  0
+   AF =  1
+   FC =  0.5
+   TNOM =  27
)

.MODEL M2SK1078 NMOS (
+   VTO =  1.3879
+   KP =  1.0514e-06
+   LAMBDA =  0
+   PHI =  0.6
+   GAMMA =  0
+   RD =  0.20505
+   RS =  0.01
+   IS =  6.1784e-16
+   CGBO =  0
+   CGDO =  8.3333e-15
+   CGSO =  9.4403e-10
+   CBD =  2.2042e-10
+   CBS =  0
+   PB =  0.8
+   RSH =  0
+   CJ =  0
+   MJ =  0.5
+   CJSW =  0
+   MJSW =  0.5
+   JS =  0
+   TOX =  2e-06
+   NSUB =  0
+   NSS =  0
+   TPG =  1
+   LD =  0
+   U0 =  600
+   KF =  0
+   AF =  1
+   FC =  0.5
+   TNOM =  27
)

.MODEL M2SK1079 NMOS (
+   VTO =  18.16
+   KP =  1.0339e-06
+   LAMBDA =  0
+   PHI =  0.6
+   GAMMA =  0
+   RD =  55.013
+   RS =  0.01
+   IS =  2.2135e-14
+   CGBO =  0
+   CGDO =  1.4493e-14
+   CGSO =  1.3216e-10
+   CBD =  1.4693e-10
+   CBS =  0
+   PB =  0.8
+   RSH =  0
+   CJ =  0
+   MJ =  0.5
+   CJSW =  0
+   MJSW =  0.5
+   JS =  0
+   TOX =  2e-06
+   NSUB =  0
+   NSS =  0
+   TPG =  1
+   LD =  0
+   U0 =  600
+   KF =  0
+   AF =  1
+   FC =  0.5
+   TNOM =  27
)

.MODEL M2SK1112 NMOS (
+   VTO =  3.0243
+   KP =  1.0482e-06
+   LAMBDA =  0
+   PHI =  0.6
+   GAMMA =  0
+   RD =  0.096241
+   RS =  0.01
+   IS =  8.084e-17
+   CGBO =  0
+   CGDO =  7.3627e-10
+   CGSO =  7.8616e-11
+   CBD =  1e-18
+   CBS =  0
+   PB =  0.8
+   RSH =  0
+   CJ =  0
+   MJ =  0.5
+   CJSW =  0
+   MJSW =  0.5
+   JS =  0
+   TOX =  2e-06
+   NSUB =  0
+   NSS =  0
+   TPG =  1
+   LD =  0
+   U0 =  600
+   KF =  0
+   AF =  1
+   FC =  0.5
+   TNOM =  27
)

.MODEL M2SK1113 NMOS (
+   VTO =  1.8182
+   KP =  1.0466e-06
+   LAMBDA =  0
+   PHI =  0.6
+   GAMMA =  0
+   RD =  0.26263
+   RS =  0.01
+   IS =  2.3169e-15
+   CGBO =  0
+   CGDO =  4.6972e-09
+   CGSO =  2.439e-15
+   CBD =  5.3072e-11
+   CBS =  0
+   PB =  0.8
+   RSH =  0
+   CJ =  0
+   MJ =  0.5
+   CJSW =  0
+   MJSW =  0.5
+   JS =  0
+   TOX =  2e-06
+   NSUB =  0
+   NSS =  0
+   TPG =  1
+   LD =  0
+   U0 =  600
+   KF =  0
+   AF =  1
+   FC =  0.5
+   TNOM =  27
)

.MODEL M2SK1118 NMOS (
+   VTO =  3.555
+   KP =  1.0321e-06
+   LAMBDA =  0
+   PHI =  0.6
+   GAMMA =  0
+   RD =  0.88727
+   RS =  0.01
+   IS =  1e-18
+   CGBO =  0
+   CGDO =  1.7241e-15
+   CGSO =  9.5827e-10
+   CBD =  9.1852e-10
+   CBS =  0
+   PB =  0.8
+   RSH =  0
+   CJ =  0
+   MJ =  0.5
+   CJSW =  0
+   MJSW =  0.5
+   JS =  0
+   TOX =  2e-06
+   NSUB =  0
+   NSS =  0
+   TPG =  1
+   LD =  0
+   U0 =  600
+   KF =  0
+   AF =  1
+   FC =  0.5
+   TNOM =  27
)

.MODEL M2SK1119 NMOS (
+   VTO =  2.134
+   KP =  1.0406e-06
+   LAMBDA =  0
+   PHI =  0.6
+   GAMMA =  0
+   RD =  2.8716
+   RS =  0.01
+   IS =  0.0012246
+   CGBO =  0
+   CGDO =  1.1573e-09
+   CGSO =  3.5323e-09
+   CBD =  1e-18
+   CBS =  0
+   PB =  0.8
+   RSH =  0
+   CJ =  0
+   MJ =  1.5
+   CJSW =  0
+   MJSW =  0.5
+   JS =  0
+   TOX =  2e-06
+   NSUB =  0
+   NSS =  0
+   TPG =  1
+   LD =  0
+   U0 =  600
+   KF =  0
+   AF =  1
+   FC =  0.5
+   TNOM =  27
)

.MODEL M2SK1120 NMOS (
+   VTO =  2.3563
+   KP =  1.0415e-06
+   LAMBDA =  0
+   PHI =  0.6
+   GAMMA =  0
+   RD =  1.4317
+   RS =  0.01
+   IS =  0.010939
+   CGBO =  0
+   CGDO =  1.0564e-09
+   CGSO =  2.9079e-09
+   CBD =  1e-18
+   CBS =  0
+   PB =  0.3905
+   RSH =  0
+   CJ =  0
+   MJ =  1.5
+   CJSW =  0
+   MJSW =  0.5
+   JS =  0
+   TOX =  2e-06
+   NSUB =  0
+   NSS =  0
+   TPG =  1
+   LD =  0
+   U0 =  600
+   KF =  0
+   AF =  1
+   FC =  0.5
+   TNOM =  27
)

.MODEL M2SK1345 NMOS (
+   VTO =  16.564
+   KP =  1.0322e-06
+   LAMBDA =  0
+   PHI =  0.6
+   GAMMA =  0
+   RD =  1.3242
+   RS =  0.01
+   IS =  6.7694e-18
+   CGBO =  0
+   CGDO =  1.3514e-15
+   CGSO =  1.9752e-10
+   CBD =  2.8659e-09
+   CBS =  0
+   PB =  0.8
+   RSH =  0
+   CJ =  0
+   MJ =  0.5
+   CJSW =  0
+   MJSW =  0.5
+   JS =  0
+   TOX =  2e-06
+   NSUB =  0
+   NSS =  0
+   TPG =  1
+   LD =  0
+   U0 =  600
+   KF =  0
+   AF =  1
+   FC =  0.5
+   TNOM =  27
)

.MODEL M2SK1346 NMOS (
+   VTO =  16.263
+   KP =  1.0725e-06
+   LAMBDA =  0
+   PHI =  0.6
+   GAMMA =  0
+   RD =  0.86207
+   RS =  0.01
+   IS =  0.0087586
+   CGBO =  0
+   CGDO =  7.6923e-16
+   CGSO =  4.6692e-11
+   CBD =  3.6414e-09
+   CBS =  0
+   PB =  0.8
+   RSH =  0
+   CJ =  0
+   MJ =  0.47832
+   CJSW =  0
+   MJSW =  0.5
+   JS =  0
+   TOX =  2e-06
+   NSUB =  0
+   NSS =  0
+   TPG =  1
+   LD =  0
+   U0 =  600
+   KF =  0
+   AF =  1
+   FC =  0.5
+   TNOM =  27
)

.MODEL M2SK1348 NMOS (
+   VTO =  1.7749
+   KP =  1.0433e-06
+   LAMBDA =  0
+   PHI =  0.6
+   GAMMA =  0
+   RD =  0.049823
+   RS =  0.01
+   IS =  0.1
+   CGBO =  0
+   CGDO =  7.8109e-10
+   CGSO =  1.7173e-10
+   CBD =  1e-18
+   CBS =  0
+   PB =  0.8
+   RSH =  0
+   CJ =  0
+   MJ =  0.5
+   CJSW =  0
+   MJSW =  0.5
+   JS =  0
+   TOX =  2e-06
+   NSUB =  0
+   NSS =  0
+   TPG =  1
+   LD =  0
+   U0 =  600
+   KF =  0
+   AF =  1
+   FC =  0.5
+   TNOM =  27
)

.MODEL M2SK1358 NMOS (
+   VTO =  1.6368
+   KP =  1.0355e-06
+   LAMBDA =  0
+   PHI =  0.6
+   GAMMA =  0
+   RD =  1.0022
+   RS =  0.01
+   IS =  0.0062399
+   CGBO =  0
+   CGDO =  2.228e-09
+   CGSO =  4.1021e-09
+   CBD =  1e-18
+   CBS =  0
+   PB =  0.8
+   RSH =  0
+   CJ =  0
+   MJ =  1.5
+   CJSW =  0
+   MJSW =  0.5
+   JS =  0
+   TOX =  2e-06
+   NSUB =  0
+   NSS =  0
+   TPG =  1
+   LD =  0
+   U0 =  600
+   KF =  0
+   AF =  1
+   FC =  0.5
+   TNOM =  27
)

.MODEL M2SK1359 NMOS (
+   VTO =  1.9403
+   KP =  1.0465e-06
+   LAMBDA =  0
+   PHI =  0.6
+   GAMMA =  0
+   RD =  2.8629
+   RS =  0.01
+   IS =  0.0047219
+   CGBO =  0
+   CGDO =  1.4518e-09
+   CGSO =  3.0576e-09
+   CBD =  1e-18
+   CBS =  0
+   PB =  0.3905
+   RSH =  0
+   CJ =  0
+   MJ =  1.5
+   CJSW =  0
+   MJSW =  0.5
+   JS =  0
+   TOX =  2e-06
+   NSUB =  0
+   NSS =  0
+   TPG =  1
+   LD =  0
+   U0 =  600
+   KF =  0
+   AF =  1
+   FC =  0.5
+   TNOM =  27
)

.MODEL M2SK1363 NMOS (
+   VTO =  26.08
+   KP =  1.0334e-06
+   LAMBDA =  0
+   PHI =  0.6
+   GAMMA =  0
+   RD =  9.0924
+   RS =  0.01
+   IS =  1e-18
+   CGBO =  0
+   CGDO =  1e-11
+   CGSO =  4e-11
+   CBD =  9.1705e-10
+   CBS =  0
+   PB =  0.8
+   RSH =  0
+   CJ =  0
+   MJ =  0.5
+   CJSW =  0
+   MJSW =  0.5
+   JS =  0
+   TOX =  2e-06
+   NSUB =  0
+   NSS =  0
+   TPG =  1
+   LD =  0
+   U0 =  600
+   KF =  0
+   AF =  1
+   FC =  0.5
+   TNOM =  27
)

.MODEL M2SK1365 NMOS (
+   VTO =  16.57
+   KP =  1.0334e-06
+   LAMBDA =  0
+   PHI =  0.6
+   GAMMA =  0
+   RD =  4.6681
+   RS =  0.01
+   IS =  1e-14
+   CGBO =  0
+   CGDO =  1e-11
+   CGSO =  4e-11
+   CBD =  9.0203e-10
+   CBS =  0
+   PB =  0.8
+   RSH =  0
+   CJ =  0
+   MJ =  0.5
+   CJSW =  0
+   MJSW =  0.5
+   JS =  0
+   TOX =  2e-06
+   NSUB =  0
+   NSS =  0
+   TPG =  1
+   LD =  0
+   U0 =  600
+   KF =  0
+   AF =  1
+   FC =  0.5
+   TNOM =  27
)

.MODEL M2SK1380 NMOS (
+   VTO =  1.7456
+   KP =  1.0382e-06
+   LAMBDA =  0
+   PHI =  0.6
+   GAMMA =  0
+   RD =  6.4893
+   RS =  0.01
+   IS =  0.1
+   CGBO =  0
+   CGDO =  5.0627e-10
+   CGSO =  1.8219e-10
+   CBD =  1e-18
+   CBS =  0
+   PB =  0.8
+   RSH =  0
+   CJ =  0
+   MJ =  1.5
+   CJSW =  0
+   MJSW =  0.5
+   JS =  0
+   TOX =  2e-06
+   NSUB =  0
+   NSS =  0
+   TPG =  1
+   LD =  0
+   U0 =  600
+   KF =  0
+   AF =  1
+   FC =  0.5
+   TNOM =  27
)

.MODEL M2SK1489 NMOS (
+   VTO =  2.4337
+   KP =  1.0374e-06
+   LAMBDA =  0
+   PHI =  0.6
+   GAMMA =  0
+   RD =  0.75106
+   RS =  0.01
+   IS =  0.00070784
+   CGBO =  0
+   CGDO =  9.6582e-10
+   CGSO =  1.2957e-09
+   CBD =  1e-18
+   CBS =  0
+   PB =  0.8
+   RSH =  0
+   CJ =  0
+   MJ =  1.5
+   CJSW =  0
+   MJSW =  0.5
+   JS =  0
+   TOX =  2e-06
+   NSUB =  0
+   NSS =  0
+   TPG =  1
+   LD =  0
+   U0 =  600
+   KF =  0
+   AF =  1
+   FC =  0.5
+   TNOM =  27
)

.MODEL M2SK1531 NMOS (
+   VTO =  3.2158
+   KP =  1.0315e-06
+   LAMBDA =  0
+   PHI =  0.6
+   GAMMA =  0
+   RD =  0.33877
+   RS =  0.01
+   IS =  0.0055464
+   CGBO =  0
+   CGDO =  1.4237e-09
+   CGSO =  4.0497e-10
+   CBD =  1e-18
+   CBS =  0
+   PB =  0.8
+   RSH =  0
+   CJ =  0
+   MJ =  1.5
+   CJSW =  0
+   MJSW =  0.5
+   JS =  0
+   TOX =  2e-06
+   NSUB =  0
+   NSS =  0
+   TPG =  1
+   LD =  0
+   U0 =  600
+   KF =  0
+   AF =  1
+   FC =  0.5
+   TNOM =  27
)

.MODEL M2SK1544 NMOS (
+   VTO =  2.986
+   KP =  1.01e-06
+   LAMBDA =  0
+   PHI =  0.6
+   GAMMA =  0
+   RD =  0.11739
+   RS =  0.01
+   IS =  1e-14
+   CGBO =  0
+   CGDO =  2.7469e-09
+   CGSO =  6.9133e-10
+   CBD =  1e-18
+   CBS =  0
+   PB =  0.8
+   RSH =  0
+   CJ =  0
+   MJ =  1.5
+   CJSW =  0
+   MJSW =  0.5
+   JS =  0
+   TOX =  2e-06
+   NSUB =  0
+   NSS =  0
+   TPG =  1
+   LD =  0
+   U0 =  600
+   KF =  0
+   AF =  1
+   FC =  0.5
+   TNOM =  27
)

.MODEL M2SK1641 NMOS (
+   VTO =  23.533
+   KP =  1.0186e-06
+   LAMBDA =  0
+   PHI =  0.6
+   GAMMA =  0
+   RD =  2.8226
+   RS =  0.01
+   IS =  1e-14
+   CGBO =  0
+   CGDO =  1e-11
+   CGSO =  4e-11
+   CBD =  2.2132e-09
+   CBS =  0
+   PB =  0.8
+   RSH =  0
+   CJ =  0
+   MJ =  0.5
+   CJSW =  0
+   MJSW =  0.5
+   JS =  0
+   TOX =  2e-06
+   NSUB =  0
+   NSS =  0
+   TPG =  1
+   LD =  0
+   U0 =  600
+   KF =  0
+   AF =  1
+   FC =  0.5
+   TNOM =  27
)

.MODEL M2SK1653 NMOS (
+   VTO =  2.0532
+   KP =  1.0549e-06
+   LAMBDA =  0
+   PHI =  0.6
+   GAMMA =  0
+   RD =  14.988
+   RS =  0.01
+   IS =  1e-14
+   CGBO =  0
+   CGDO =  3.1463e-09
+   CGSO =  1.0614e-10
+   CBD =  1
+   CBS =  0
+   PB =  0.8
+   RSH =  0
+   CJ =  0
+   MJ =  1.5
+   CJSW =  0
+   MJSW =  0.5
+   JS =  0
+   TOX =  2e-06
+   NSUB =  0
+   NSS =  0
+   TPG =  1
+   LD =  0
+   U0 =  600
+   KF =  0
+   AF =  1
+   FC =  0.5
+   TNOM =  27
)

.MODEL M2SK1717 NMOS (
+   VTO =  0.5273
+   KP =  1.02e-06
+   LAMBDA =  0
+   PHI =  0.6
+   GAMMA =  0
+   RD =  0.095715
+   RS =  0.01
+   IS =  1e-14
+   CGBO =  0
+   CGDO =  8.3333e-15
+   CGSO =  1.1815e-09
+   CBD =  3.0456e-10
+   CBS =  0
+   PB =  0.8
+   RSH =  0
+   CJ =  0
+   MJ =  0.48909
+   CJSW =  0
+   MJSW =  0.5
+   JS =  0
+   TOX =  2e-06
+   NSUB =  0
+   NSS =  0
+   TPG =  1
+   LD =  0
+   U0 =  600
+   KF =  0
+   AF =  1
+   FC =  0.5
+   TNOM =  27
)

.MODEL M2SK1719 NMOS (
+   VTO =  1.611
+   KP =  1.0378e-06
+   LAMBDA =  0
+   PHI =  0.6
+   GAMMA =  0
+   RD =  0.046879
+   RS =  0.01
+   IS =  1e-14
+   CGBO =  0
+   CGDO =  5.098e-08
+   CGSO =  1e-15
+   CBD =  1.0596e-09
+   CBS =  0
+   PB =  0.8
+   RSH =  0
+   CJ =  0
+   MJ =  1.1373
+   CJSW =  0
+   MJSW =  0.5
+   JS =  0
+   TOX =  2e-06
+   NSUB =  0
+   NSS =  0
+   TPG =  1
+   LD =  0
+   U0 =  600
+   KF =  0
+   AF =  1
+   FC =  0.5
+   TNOM =  27
)

.MODEL M2SK1745 NMOS (
+   VTO =  26.58
+   KP =  1.0392e-06
+   LAMBDA =  0
+   PHI =  0.6
+   GAMMA =  0
+   RD =  3.9669
+   RS =  0.01
+   IS =  1e-14
+   CGBO =  0
+   CGDO =  1.2716e-10
+   CGSO =  7.3226e-11
+   CBD =  5.3286e-10
+   CBS =  0
+   PB =  0.8
+   RSH =  0
+   CJ =  0
+   MJ =  0.5
+   CJSW =  0
+   MJSW =  0.5
+   JS =  0
+   TOX =  2e-06
+   NSUB =  0
+   NSS =  0
+   TPG =  1
+   LD =  0
+   U0 =  600
+   KF =  0
+   AF =  1
+   FC =  0.5
+   TNOM =  27
)

.MODEL M2SK1767 NMOS (
+   VTO =  3.3768
+   KP =  1.0369e-06
+   LAMBDA =  0
+   PHI =  0.6
+   GAMMA =  0
+   RD =  1.8242
+   RS =  0.01
+   IS =  1e-14
+   CGBO =  0
+   CGDO =  8.4688e-10
+   CGSO =  6.954e-10
+   CBD =  1e-18
+   CBS =  0
+   PB =  0.3905
+   RSH =  0
+   CJ =  0
+   MJ =  1.5
+   CJSW =  0
+   MJSW =  0.5
+   JS =  0
+   TOX =  2e-06
+   NSUB =  0
+   NSS =  0
+   TPG =  1
+   LD =  0
+   U0 =  600
+   KF =  0
+   AF =  1
+   FC =  0.5
+   TNOM =  27
)

.MODEL M2SK1768 NMOS (
+   VTO =  1.43
+   KP =  1.0874e-06
+   LAMBDA =  0
+   PHI =  0.6
+   GAMMA =  0
+   RD =  0.023221
+   RS =  0.01
+   IS =  1e-14
+   CGBO =  0
+   CGDO =  1e-15
+   CGSO =  7.0182e-10
+   CBD =  1
+   CBS =  0
+   PB =  3
+   RSH =  0
+   CJ =  0
+   MJ =  1.5
+   CJSW =  0
+   MJSW =  0.5
+   JS =  0
+   TOX =  2e-06
+   NSUB =  0
+   NSS =  0
+   TPG =  1
+   LD =  0
+   U0 =  600
+   KF =  0
+   AF =  1
+   FC =  0.5
+   TNOM =  27
)

.MODEL M2SK1769 NMOS (
+   VTO =  28.123
+   KP =  1.0541e-06
+   LAMBDA =  0
+   PHI =  0.6
+   GAMMA =  0
+   RD =  39.208
+   RS =  0.01
+   IS =  1e-14
+   CGBO =  0
+   CGDO =  5.561e-11
+   CGSO =  3.1161e-11
+   CBD =  4.1792e-10
+   CBS =  0
+   PB =  0.8
+   RSH =  0
+   CJ =  0
+   MJ =  0.5
+   CJSW =  0
+   MJSW =  0.5
+   JS =  0
+   TOX =  2e-06
+   NSUB =  0
+   NSS =  0
+   TPG =  1
+   LD =  0
+   U0 =  600
+   KF =  0
+   AF =  1
+   FC =  0.5
+   TNOM =  27
)

.MODEL M2SK1792 NMOS (
+   VTO =  2.0023
+   KP =  1.0549e-06
+   LAMBDA =  0
+   PHI =  0.6
+   GAMMA =  0
+   RD =  14.988
+   RS =  0.01
+   IS =  1e-14
+   CGBO =  0
+   CGDO =  1.5149e-09
+   CGSO =  3.0498e-10
+   CBD =  1e-18
+   CBS =  0
+   PB =  0.8
+   RSH =  0
+   CJ =  0
+   MJ =  1.5
+   CJSW =  0
+   MJSW =  0.5
+   JS =  0
+   TOX =  2e-06
+   NSUB =  0
+   NSS =  0
+   TPG =  1
+   LD =  0
+   U0 =  600
+   KF =  0
+   AF =  1
+   FC =  0.5
+   TNOM =  27
)

.MODEL M2SK1805 NMOS (
+   VTO =  2.1839
+   KP =  1.0464e-06
+   LAMBDA =  0
+   PHI =  0.6
+   GAMMA =  0
+   RD =  0.6492
+   RS =  0.01
+   IS =  1e-14
+   CGBO =  0
+   CGDO =  2.293e-09
+   CGSO =  4.7619e-15
+   CBD =  1
+   CBS =  0
+   PB =  0.8
+   RSH =  0
+   CJ =  0
+   MJ =  0.1
+   CJSW =  0
+   MJSW =  0.5
+   JS =  0
+   TOX =  2e-06
+   NSUB =  0
+   NSS =  0
+   TPG =  1
+   LD =  0
+   U0 =  600
+   KF =  0
+   AF =  1
+   FC =  0.5
+   TNOM =  27
)

.MODEL M2SK1865 NMOS (
+   VTO =  3.8855
+   KP =  1.0286e-06
+   LAMBDA =  0
+   PHI =  0.6
+   GAMMA =  0
+   RD =  0.48932
+   RS =  0.01
+   IS =  1e-14
+   CGBO =  0
+   CGDO =  7.3672e-10
+   CGSO =  2.0365e-10
+   CBD =  1e-18
+   CBS =  0
+   PB =  0.8
+   RSH =  0
+   CJ =  0
+   MJ =  1.5
+   CJSW =  0
+   MJSW =  0.5
+   JS =  0
+   TOX =  2e-06
+   NSUB =  0
+   NSS =  0
+   TPG =  1
+   LD =  0
+   U0 =  600
+   KF =  0
+   AF =  1
+   FC =  0.5
+   TNOM =  27
)

.MODEL M2SK1913 NMOS (
+   VTO =  3.664
+   KP =  1.0393e-06
+   LAMBDA =  0
+   PHI =  0.6
+   GAMMA =  0
+   RD =  0.82566
+   RS =  0.01
+   IS =  1e-14
+   CGBO =  0
+   CGDO =  2.0833e-15
+   CGSO =  3.5037e-10
+   CBD =  1.0332e-09
+   CBS =  0
+   PB =  0.8
+   RSH =  0
+   CJ =  0
+   MJ =  0.63095
+   CJSW =  0
+   MJSW =  0.5
+   JS =  0
+   TOX =  2e-06
+   NSUB =  0
+   NSS =  0
+   TPG =  1
+   LD =  0
+   U0 =  600
+   KF =  0
+   AF =  1
+   FC =  0.5
+   TNOM =  27
)

.MODEL M2SK1928 NMOS (
+   VTO =  24.87
+   KP =  1.0392e-06
+   LAMBDA =  0
+   PHI =  0.6
+   GAMMA =  0
+   RD =  11.947
+   RS =  0.01
+   IS =  1e-14
+   CGBO =  0
+   CGDO =  7.8983e-11
+   CGSO =  5.4542e-11
+   CBD =  1.9687e-09
+   CBS =  0
+   PB =  0.8
+   RSH =  0
+   CJ =  0
+   MJ =  0.5
+   CJSW =  0
+   MJSW =  0.5
+   JS =  0
+   TOX =  2e-06
+   NSUB =  0
+   NSS =  0
+   TPG =  1
+   LD =  0
+   U0 =  600
+   KF =  0
+   AF =  1
+   FC =  0.5
+   TNOM =  27
)

.MODEL M2SK2030 NMOS (
+   VTO =  16.717
+   KP =  1.0628e-06
+   LAMBDA =  0
+   PHI =  0.6
+   GAMMA =  0
+   RD =  136.69
+   RS =  0.01
+   IS =  1e-14
+   CGBO =  0
+   CGDO =  9.324e-11
+   CGSO =  1.086e-10
+   CBD =  7.2886e-10
+   CBS =  0
+   PB =  0.8
+   RSH =  0
+   CJ =  0
+   MJ =  0.5
+   CJSW =  0
+   MJSW =  0.5
+   JS =  0
+   TOX =  2e-06
+   NSUB =  0
+   NSS =  0
+   TPG =  1
+   LD =  0
+   U0 =  600
+   KF =  0
+   AF =  1
+   FC =  0.5
+   TNOM =  27
)

.MODEL M2SK2038 NMOS (
+   VTO =  3.346
+   KP =  1.0322e-06
+   LAMBDA =  0
+   PHI =  0.6
+   GAMMA =  0
+   RD =  1.6589
+   RS =  0.01
+   IS =  1e-14
+   CGBO =  0
+   CGDO =  1.5613e-09
+   CGSO =  6.0871e-10
+   CBD =  1e-18
+   CBS =  0
+   PB =  0.3905
+   RSH =  0
+   CJ =  0
+   MJ =  1.5
+   CJSW =  0
+   MJSW =  0.5
+   JS =  0
+   TOX =  2e-06
+   NSUB =  0
+   NSS =  0
+   TPG =  1
+   LD =  0
+   U0 =  600
+   KF =  0
+   AF =  1
+   FC =  0.5
+   TNOM =  27
)

.MODEL M2SK2057 NMOS (
+   VTO =  27.533
+   KP =  1.0381e-06
+   LAMBDA =  0
+   PHI =  0.6
+   GAMMA =  0
+   RD =  3.7494
+   RS =  0.01
+   IS =  1e-14
+   CGBO =  0
+   CGDO =  1
+   CGSO =  1
+   CBD =  1e-18
+   CBS =  0
+   PB =  0.8
+   RSH =  0
+   CJ =  0
+   MJ =  0.5
+   CJSW =  0
+   MJSW =  0.5
+   JS =  0
+   TOX =  2e-06
+   NSUB =  0
+   NSS =  0
+   TPG =  1
+   LD =  0
+   U0 =  600
+   KF =  0
+   AF =  1
+   FC =  0.5
+   TNOM =  27
)

.MODEL M2SK2078 NMOS (
+   VTO =  3.3741
+   KP =  1.0341e-06
+   LAMBDA =  0
+   PHI =  0.6
+   GAMMA =  0
+   RD =  0.91082
+   RS =  0.01
+   IS =  1e-14
+   CGBO =  0
+   CGDO =  1.6061e-09
+   CGSO =  1.1873e-09
+   CBD =  2.0717e-09
+   CBS =  0
+   PB =  0.3905
+   RSH =  0
+   CJ =  0
+   MJ =  1.5
+   CJSW =  0
+   MJSW =  0.5
+   JS =  0
+   TOX =  2e-06
+   NSUB =  0
+   NSS =  0
+   TPG =  1
+   LD =  0
+   U0 =  600
+   KF =  0
+   AF =  1
+   FC =  0.5
+   TNOM =  27
)

.MODEL M2SK2200 NMOS (
+   VTO =  18.316
+   KP =  1.044e-06
+   LAMBDA =  0
+   PHI =  0.6
+   GAMMA =  0
+   RD =  8.6306
+   RS =  0.01
+   IS =  1e-14
+   CGBO =  0
+   CGDO =  2.4174e-11
+   CGSO =  6.1055e-11
+   CBD =  8.8045e-11
+   CBS =  0
+   PB =  0.8
+   RSH =  0
+   CJ =  0
+   MJ =  0.5
+   CJSW =  0
+   MJSW =  0.5
+   JS =  0
+   TOX =  2e-06
+   NSUB =  0
+   NSS =  0
+   TPG =  1
+   LD =  0
+   U0 =  600
+   KF =  0
+   AF =  1
+   FC =  0.5
+   TNOM =  27
)

.MODEL M2SK2201 NMOS (
+   VTO =  18.316
+   KP =  1.044e-06
+   LAMBDA =  0
+   PHI =  0.6
+   GAMMA =  0
+   RD =  8.5506
+   RS =  0.01
+   IS =  1e-14
+   CGBO =  0
+   CGDO =  2.4174e-11
+   CGSO =  6.1055e-11
+   CBD =  8.8045e-11
+   CBS =  0
+   PB =  0.8
+   RSH =  0
+   CJ =  0
+   MJ =  0.5
+   CJSW =  0
+   MJSW =  0.5
+   JS =  0
+   TOX =  2e-06
+   NSUB =  0
+   NSS =  0
+   TPG =  1
+   LD =  0
+   U0 =  600
+   KF =  0
+   AF =  1
+   FC =  0.5
+   TNOM =  27
)

.MODEL M2SK2231 NMOS (
+   VTO =  1.9505
+   KP =  1.0335e-06
+   LAMBDA =  0
+   PHI =  0.6
+   GAMMA =  0
+   RD =  0.081161
+   RS =  0.01
+   IS =  1e-14
+   CGBO =  0
+   CGDO =  1.1905e-15
+   CGSO =  2.4006e-10
+   CBD =  6.0467e-10
+   CBS =  0
+   PB =  0.8
+   RSH =  0
+   CJ =  0
+   MJ =  0.49295
+   CJSW =  0
+   MJSW =  0.5
+   JS =  0
+   TOX =  2e-06
+   NSUB =  0
+   NSS =  0
+   TPG =  1
+   LD =  0
+   U0 =  600
+   KF =  0
+   AF =  1
+   FC =  0.5
+   TNOM =  27
)

.MODEL M2SK2267 NMOS (
+   VTO =  18.2
+   KP =  1.0417e-06
+   LAMBDA =  0
+   PHI =  0.6
+   GAMMA =  0
+   RD =  0.56825
+   RS =  0.01
+   IS =  1e-14
+   CGBO =  0
+   CGDO =  7.5453e-12
+   CGSO =  8.5955e-13
+   CBD =  5.8968e-09
+   CBS =  0
+   PB =  0.8
+   RSH =  0
+   CJ =  0
+   MJ =  0.5
+   CJSW =  0
+   MJSW =  0.5
+   JS =  0
+   TOX =  2e-06
+   NSUB =  0
+   NSS =  0
+   TPG =  1
+   LD =  0
+   U0 =  600
+   KF =  0
+   AF =  1
+   FC =  0.5
+   TNOM =  27
)

.MODEL M2SK2312 NMOS (
+   VTO =  18.2
+   KP =  1.0396e-06
+   LAMBDA =  0
+   PHI =  0.6
+   GAMMA =  0
+   RD =  13.664
+   RS =  0.01
+   IS =  1e-14
+   CGBO =  0
+   CGDO =  8.4975e-12
+   CGSO =  3.0692e-12
+   CBD =  3.4594e-09
+   CBS =  0
+   PB =  0.8
+   RSH =  0
+   CJ =  0
+   MJ =  0.5
+   CJSW =  0
+   MJSW =  0.5
+   JS =  0
+   TOX =  2e-06
+   NSUB =  0
+   NSS =  0
+   TPG =  1
+   LD =  0
+   U0 =  600
+   KF =  0
+   AF =  1
+   FC =  0.5
+   TNOM =  27
)

.MODEL M2SK2352 NMOS (
+   VTO =  28.06
+   KP =  1.0288e-06
+   LAMBDA =  0
+   PHI =  0.6
+   GAMMA =  0
+   RD =  13.094
+   RS =  0.01
+   IS =  1e-14
+   CGBO =  0
+   CGDO =  3.7091e-11
+   CGSO =  5.094e-11
+   CBD =  5.4851e-10
+   CBS =  0
+   PB =  0.8
+   RSH =  0
+   CJ =  0
+   MJ =  0.5
+   CJSW =  0
+   MJSW =  0.5
+   JS =  0
+   TOX =  2e-06
+   NSUB =  0
+   NSS =  0
+   TPG =  1
+   LD =  0
+   U0 =  600
+   KF =  0
+   AF =  1
+   FC =  0.5
+   TNOM =  27
)

.MODEL M2SK945 NMOS (
+   VTO =  3.2964
+   KP =  1.0371e-06
+   LAMBDA =  0
+   PHI =  0.6
+   GAMMA =  0
+   RD =  3.2929
+   RS =  0.01
+   IS =  1e-18
+   CGBO =  0
+   CGDO =  1.0204e-14
+   CGSO =  9.2414e-09
+   CBD =  1.653e-10
+   CBS =  0
+   PB =  0.8
+   RSH =  0
+   CJ =  0
+   MJ =  0.5
+   CJSW =  0
+   MJSW =  0.5
+   JS =  0
+   TOX =  2e-06
+   NSUB =  0
+   NSS =  0
+   TPG =  1
+   LD =  0
+   U0 =  600
+   KF =  0
+   AF =  1
+   FC =  0.5
+   TNOM =  27
)
