.model J2N4416A NJF(Beta=1m Betatce=-.5 Rd=9 Rs=9 Lambda=5m Vto=-3
+              Vtotc=-2.5m Is=50f Isr=1.3p N=1 Nr=2 Xti=3 Alpha=8u
+              Vk=104 Cgd=1.5p M=.5 Pb=1 Fc=.5 Cgs=5p)
*CQ 91/7 M.Okamura RF-junkciotn FET
