.model 2N5245 NJF (Beta=1.38m Betatce=-500m Rd=1 Rs=1 Lambda=8m Vto=-2.442 Vtotc=-2.5m
+ Is=101.9f Isr=977.5f N=1 Nr=2 Xti=3 Alpha=13.92u Vk=88.13 Cgd=3p M=344.8m
+ Pb=1 Fc=500m Cgs=3.383p Kf=2.168e-002f Af=1)
