.model J2SK192A  NJF(beta=2.96m vto=-2.60 cgd= 1p  cgs= 2p)
* CQ 1988/7
