*2SK19 ‚¾‚¢‚½‚¢‚à‚¢‚¢‚Æ‚±‚ë
.model J2SK19  NJF(vto=-2.0v beta=7.00m lambda=0 cgd=5.0p cgs=2.3p 
+ rd=10 rs=10
