.model J2SK147   NJF(beta=136m  vto=-0.38 cgd=15p  cgs=75p)
* CQ 1988/7
