.model J2SK161   NJF(beta=4.34m vto=-1.40 cgd=.15p cgs=3.9p dev 10% LOT 60%)
* CQ 1988/7
