.model J2SK117   NJF(beta=13.1m vto=-0.70 cgd= 3p  cgs=13p)
* CQ 1988/7
