.model J2SK246   NJF(beta=1.63m vto=-2.50 cgd=2.5p cgs= 9p)
* CQ 1988/7
