*2SK30
*id(R 0.3-0.75 / O 0.6-1.4 / Y 1.2-3.00 / GR 2.6-6.5)
.model J2SK30r	NJF(vto=-0.8v beta=0.75m lambda=0 cgd=2.6p cgs=8.2p 
+ dev 10% LOT 60%)
.model J2SK30o	NJF(vto=-1.1v beta=0.75m lambda=0 cgd=2.6p cgs=8.2p 
+ dev 10% LOT 60%)
.model J2SK30y	NJF(vto=-1.8v beta=0.75m lambda=0 cgd=2.6p cgs=8.2p 
+ dev 10% LOT 60%)
.model J2SK30gr	NJF(vto=-2.8v beta=0.75m lambda=0 cgd=2.6p cgs=8.2p 
+ dev 10% LOT 60%)

.model J2SK30atm  NJF(beta=.768m vto=-2.70 cgd=2.6p cgs=8.2p dev 10% LOT 60%)
* CQ 1988/7
