.model J2SK83S1 NJF(beta=4.0m vto=-1.0 cgd=0.1p cgs=4.0p rd=10 rs=10, 
+       lambda=0.01)
*82 CQ FET Manual
