**********
* Copyright Intusoft 1988-1997
* All Rights Reserved
**********
**********
*SRC=BFQ10;BFQ10;JFETs N;Diff. Amp.;20V 10mA
.MODEL BFQ10 NJF (VTO=-1.80 BETA=1.5M LAMBDA=2.43M RD=4.04
+ RS=3.63 IS=7.9F PB=1 FC=.5 CGS=20.8P CGD=3.2P AF=1 KF=1.987E-15)
* Philips 30 Volt  30M Amp  28.8 ohm  Dep-Mode N-Channel J-FET  
* 1/2 J-FET Pair 05-10-1991
**********
*SRC=BFR30;BFR30;JFETs N;Gen. Purpose;25V 5mA
.MODEL BFR30 NJF (VTO=-2.55 BETA=2.1M LAMBDA=12.4M RD=47.5
+ RS=146.3 IS=3.16F PB=1 FC=.5 CGS=6.63P CGD=3.31P AF=1 KF=4.471E-16)
* Philips 25 Volt  10M Amp  50 ohm  Dep-Mode N-Channel J-FET  05-10-1991
**********
*SRC=BFR31;BFR31;JFETs N;Gen. Purpose;25V 5mA
.MODEL BFR31 NJF (VTO=-1.60 BETA=2.1M LAMBDA=12.4M RD=27
+ RS=86.3 IS=3.16F PB=1 FC=.5 CGS=6.63P CGD=3.31P AF=1 KF=1.108E-15)
* Philips 25 Volt  10M Amp  50 ohm  Dep-Mode N-Channel J-FET  05-10-1991
**********
*SRC=BF510;BF510;JFETs N;VHF/UHF;20V 10mA, Low Noise Figure
.MODEL BF510 NJF (VTO=-.800 BETA=2.8M LAMBDA=15.5M RD=4.04
+ RS=3.63 IS=11.8F PB=1 FC=.5 CGS=8.95P CGD=995F)
* Philips 20 Volt  30M Amp  28.8 ohm  Dep-Mode N-Channel J-FET  05-10-1991
**********
*SRC=BF511;BF511;JFETs N;VHF/UHF;20V 10mA, Low Noise Figure
.MODEL BF511 NJF (VTO=-1.50 BETA=4.9M LAMBDA=15.5M RD=3.36
+ RS=3.02 IS=11.8F PB=1 FC=.5 CGS=8.95P CGD=995F)
* Philips 20 Volt  30M Amp  24 ohm  Dep-Mode N-Channel J-FET  05-10-1991
**********
*SRC=BF512;BF512;JFETs N;VHF/UHF;20V 10mA, Low Noise Figure
.MODEL BF512 NJF (VTO=-2.20 BETA=6.4M LAMBDA=15.5M RD=2.8
+ RS=2.52 IS=11.8F PB=1 FC=.5 CGS=8.95P CGD=995F)
* Philips 20 Volt  30M Amp  20 ohm  Dep-Mode N-Channel J-FET  05-10-1991
**********
*SRC=BF513;BF513;JFETs N;VHF/UHF;20V 10mA, Low Noise Figure
.MODEL BF513 NJF (VTO=-3.00 BETA=7.5M LAMBDA=15.5M RD=2.52
+ RS=2.26 IS=11.8F PB=1 FC=.5 CGS=8.95P CGD=995F)
* Philips 20 Volt  30M Amp  18 ohm  Dep-Mode N-Channel J-FET  05-10-1991
**********
*SRC=BF245A;BF245A;JFETs N;Amplifier;30V 10mA
.MODEL BF245A NJF (VTO=-2.20 BETA=3.15M LAMBDA=8.86M RD=300
+ RS=270 IS=5.64F PB=1 FC=.5 CGS=3.85P CGD=1.15P)
* Philips 35 Volt  25M Amp  5K ohm  Dep-Mode N-Channel J-FET  05-10-1991
**********
*SRC=BF245B;BF245B;JFETs N;Amplifier;30V 10mA
.MODEL BF245B NJF (VTO=-3.21 BETA=3.05M LAMBDA=8.86M RD=258
+ RS=184 IS=5.64F PB=1 FC=.5 CGS=3.85P CGD=1.15P)
* Philips 35 Volt  25M Amp  1.7K ohm  Dep-Mode N-Channel J-FET  05-10-1991
**********
*SRC=BF245C;BF245C;JFETs N;Amplifier;30V 10mA
.MODEL BF245C NJF (VTO=-5.54 BETA=3.45M LAMBDA=8.86M RD=185
+ RS=211 IS=5.64F PB=1 FC=.5 CGS=3.85P CGD=1.15P)
* Philips 35 Volt  25M Amp  1.2K ohm  Dep-Mode N-Channel J-FET  05-10-1991
**********
*SRC=BF247A;BF247A;JFETs N;VHF/UHF;25V 10mA
.MODEL BF247A NJF (VTO=-2.20 BETA=15M LAMBDA=12.4M RD=61.4
+ RS=71.6 IS=79F PB=1 FC=.5 CGS=30P CGD=14P)
* Philips 25 Volt  .25 Amp  10 ohm  Dep-Mode N-Channel J-FET  05-10-1991
**********
*SRC=BF247B;BF247B;JFETs N;VHF/UHF;25V 10mA
.MODEL BF247B NJF (VTO=-4.10 BETA=17M LAMBDA=12.4M RD=51.4
+ RS=63.26 IS=79F PB=1 FC=.5 CGS=30P CGD=14P)
* Philips 25 Volt  .25 Amp  10 ohm  Dep-Mode N-Channel J-FET  05-10-1991
**********
*SRC=BF247C;BF247C;JFETs N;VHF/UHF;25V 10mA
.MODEL BF247C NJF (VTO=-5.90 BETA=18M LAMBDA=12.4M RD=39.4
+ RS=55.26 IS=79F PB=1 FC=.5 CGS=30P CGD=14P)
* Philips 25 Volt  .25 Amp  10 ohm  Dep-Mode N-Channel J-FET  05-10-1991
**********
*SRC=BSJ174;BSJ174;JFETs P;Analog Switch;30V 50mA
.MODEL BSJ174 PJF (VTO=-6.35 BETA=12M LAMBDA=10.3M RD=19.8
+ RS=18.82 IS=35.5F PB=1 FC=.5 CGS=16.7P CGD=13.2P)
* Philips 30 Volt  .135 Amp  70 ohm  Dep-Mode N-Channel J-FET  05-10-1991
**********
*SRC=BSJ175;BSJ175;JFETs P;Analog Switch;30V 50mA
.MODEL BSJ175 PJF (VTO=-4.20 BETA=7M LAMBDA=10.3M RD=23.3
+ RS=21.9 IS=18.4F PB=1 FC=.5 CGS=17.5P CGD=19.9P)
* Philips 30 Volt  70M Amp  95 ohm  Dep-Mode P-Channel J-FET  05-10-1991
**********
*SRC=BSJ176;BSJ176;JFETs P;Analog Switch;30V 50mA
.MODEL BSJ176 PJF (VTO=-2.10 BETA=4M LAMBDA=10.3M RD=40.8
+ RS=37.7 IS=9.22F PB=1 FC=.5 CGS=20P CGD=26.5P)
* Philips 30 Volt  35M Amp  220 ohm  Dep-Mode P-Channel J-FET  05-10-1991
**********
*SRC=BSJ177;BSJ177;JFETs P;Analog Switch;30V 50mA
.MODEL BSJ177 PJF (VTO=-1.80 BETA=2.5M LAMBDA=10.3M RD=50.6
+ RS=46.5 IS=5.26F PB=1 FC=.5 CGS=22.5P CGD=33.1P)
* Philips 30 Volt  20M Amp  290 ohm  Dep-Mode P-Channel J-FET  05-10-1991
**********
*SRC=J105;J105;JFETs N;Analog Switch;25V 50mA, Low Ron
.MODEL J105 NJF (VTO=-7.25 BETA=5M LAMBDA=.035
+ RD=4.20E-01 RS=3.78E-01 IS=9.48E-14
+ PB=1.00 FC=.5 CGS=8.00E-11 CGD=1.40E-10 KF=3.886E-16 AF=1)
* Siliconix  25 Volt  50 mA   3.0 ohm  Dep-Mode N-Channel 
* Switch  07-11-1990
**********
*SRC=J106;J106;JFETs N;Analog Switch;25V 50mA, Low Ron
.MODEL J106 NJF (VTO=-4.00 BETA=15M  LAMBDA=.035
+ RD=8.40E-01 RS=7.56E-01 IS=9.48E-14
+ PB=1.00 FC=.5 CGS=8.00E-11 CGD=1.40E-10 KF=1.544E-16 AF=1)
* Siliconix  25 Volt  50 mA   6.0 ohm  Dep-Mode N-Channel 
* Switch  07-09-1990
**********
*SRC=J107;J107;JFETs N;Analog Switch;25V 50mA, Low Ron
.MODEL J107 NJF (VTO=-2.50 BETA=100M LAMBDA=.035
+ RD=1.12E+00 RS=1.01E+00 IS=9.48E-13
+ PB=1.00 FC=.5 CGS=8.00E-11 CGD=1.40E-10 KF=2.225E-16 AF=1)
* Siliconix  25 Volt  50 mA   8.0 ohm  Dep-Mode N-Channel 
* Switch  07-09-1990
**********
*SRC=J108;J108;JFETs N;Analog Switch;25V 50mA, Low Ron
.MODEL J108 NJF (VTO=-6.50 BETA=60E-03 LAMBDA=.035
+ RD=1E-03 RS=10.1E+00 IS=1.42E-13
+ PB=1.00 FC=.5 CGS=4.00E-11 CGD=5.00E-11 AF=1 KF=3.754E-16)
* Siliconix  25 Volt  450 mA   8.0 ohm  Dep-Mode N-Channel 
* Switch  07-14-1990
**********
*SRC=J109;J109;JFETs N;Analog Switch;25V 50mA, Low Ron
.MODEL J109 NJF (VTO=-4.00 BETA=2.5M LAMBDA=.035
+ RD=1.68E+00 RS=1.51E+00 IS=1.90E-13
+ PB=1.00 FC=.5 CGS=4.00E-11 CGD=5.00E-11 AF=1 KF=3.754E-16)
* Siliconix  25 Volt  600 mA  12.0 ohm  Dep-Mode N-Channel 
* Switch  07-09-1990
**********
*SRC=J110;J110;JFETs N;Analog Switch;25V 50mA, Low Ron
.MODEL J110 NJF (VTO=-2.00 BETA=8M LAMBDA=.035
+ RD=2.52E+00 RS=2.27E+00 IS=1.90E-13
+ PB=1.00 FC=.5 CGS=4.00E-11 CGD=5.00E-11 AF=1 KF=3.754E-16)
* Siliconix  25 Volt  600 mA  18.0 ohm  Dep-Mode N-Channel 
* Switch  07-09-1990
**********
*SRC=J110A;J110A;JFETs N;Analog Switch;25V 50mA, Low Ron
.MODEL J110A NJF (VTO=-2.00 BETA=8M LAMBDA=.035
+ RD=2.52E+00 RS=2.27E+00 IS=1.90E-13
+ PB=1.00 FC=.5 CGS=4.00E-11 CGD=5.00E-11 AF=1 KF=3.754E-16)
* Siliconix  25 Volt  600 mA  18.0 ohm  Dep-Mode N-Channel 
* Switch  07-09-1990
**********
*SRC=J174;J174;JFETs P;Analog Switch;30V 50mA, Low Ron
.MODEL J174 PJF (VTO=-7.80 BETA=3.6M LAMBDA=6.89M 
+ RD=4.95 RS=5.45 IS=3.51F PB=1 FC=.5 
+ CGS=12.5P CGD=16.5P KF=5.3434E-16 AF=1)
* Siliconix 45 Volt  20M Amp  35.3 ohm  Dep-Mode P-Channel J-FET  05-06-1991
**********
*SRC=J175;J175;JFETs P;Analog Switch;30V 50mA, Low Ron
.MODEL J175 PJF (VTO=-4.90 BETA=3.6M LAMBDA=6.89M RD=14
+ RS=14.6 IS=3.51F PB=1 FC=.5 CGS=12.5P CGD=16.5P KF=5.3434E-16 AF=1)
* Siliconix 45 Volt  20M Amp  100 ohm  Dep-Mode P-Channel J-FET  05-06-1991
**********
*SRC=J176;J176;JFETs P;Analog Switch;30V 50mA, Low Ron
.MODEL J176 PJF (VTO=-2.90 BETA=3.6M LAMBDA=6.89M RD=28
+ RS=29.2 IS=3.51F PB=1 FC=.5 CGS=12.5P CGD=16.5P KF=5.3434E-16 AF=1)
* Siliconix 45 Volt  20M Amp  200 ohm  Dep-Mode P-Channel J-FET  05-06-1991
**********
*SRC=J177;J177;JFETs P;Analog Switch;30V 50mA, Low Ron
.MODEL J177 PJF (VTO=-1.65 BETA=3.6M LAMBDA=6.89M RD=35
+ RS=36.5 IS=3.51F PB=1 FC=.5 CGS=12.5P CGD=16.5P KF=5.3434E-16 AF=1)
* Siliconix 45 Volt  20M Amp  250 ohm  Dep-Mode P-Channel J-FET  05-06-1991
**********
*SRC=J201;J201;JFETs N;Gen. Purpose;40V 50mA
.MODEL J201 NJF (VTO=-0.90 BETA=7.00E-04 LAMBDA=.035
+ RD=1.12E+02 RS=1.01E+02 IS=1.58E-16
+ PB=1.00 FC=.5 CGS=3.00E-12 CGD=1.00E-12 AF=1 KF=1.104E-15)
* Siliconix  40 Volt    1 mA 800.0 ohm  Dep-Mode N-Channel 
* Gen Purp Amp 07-14-1990
**********
*SRC=J202;J202;JFETs N;Gen. Purpose;40V 50mA
.MODEL J202 NJF (VTO=-2.40 BETA=5.00E-04 LAMBDA=.035
+ RD=6.30E+01 RS=5.67E+01 IS=7.90E-16
+ PB=1.00 FC=.5 CGS=3.00E-12 CGD=1.00E-12 AF=1 KF=1.104E-15)
* Siliconix  40 Volt    4 mA 450.0 ohm  Dep-Mode N-Channel 
* Gen Purp Amp  07-14-1990
**********
*SRC=J203;J203;JFETs N;Gen. Purpose;40V 50mA
.MODEL J203 NJF (VTO=-6.00 BETA=3.30E-04 LAMBDA=.035
+ RD=4.20E+01 RS=3.78E+01 IS=1.19E-15
+ PB=1.00 FC=.5 CGS=3.00E-12 CGD=1.00E-12 AF=1 KF=1.104E-15)
* Siliconix  40 Volt    6 mA 300.0 ohm  Dep-Mode N-Channel 
* Gen Purp Amp  07-14-1990
**********
*SRC=J204;J204;JFETs N;Gen. Purpose;40V 50mA
.MODEL J204 NJF (VTO=-1.00 BETA=.8E-03 LAMBDA=.035
+ RD=1.12E+02 RS=1.01E+02 IS=3.16E-16
+ PB=1.00 FC=.5 CGS=3.00E-12 CGD=1.00E-12 AF=1 KF=1.104E-15)
* Siliconix  25 Volt    1 mA 800.0 ohm  Dep-Mode N-Channel 
* Gen Purp Amp  07-14-1990
**********
*SRC=J308P;J308P;JFETs N;VHF/UHF;25V 10mA
.MODEL J308P NJF (VTO=-3.75 BETA=2.60E-03 LAMBDA=.035
+ RD=4.20E+00 RS=3.78E+00 IS=1.58E-14
+ PB=1.00 FC=.5 CGS=6.50E-12 CGD=2.50E-12 AF=1 KF=1.4208E-17)
* Siliconix  25 Volt   50 mA  30.0 ohm  Dep-Mode N-Channel 
* VHF/UHF AMP  07-14-1990
**********
*SRC=J309P;J309P;JFETs N;VHF/UHF;25V 10mA
.MODEL J309P NJF (VTO=-2.50 BETA=3.36E-03 LAMBDA=.035
+ RD=4.90E+00 RS=4.41E+00 IS=7.90E-15
+ PB=1.00 FC=.5 CGS=6.50E-12 CGD=2.50E-12 AF=1 KF=1.4208E-17)
* Siliconix  25 Volt   25 mA  35.0 ohm  Dep-Mode N-Channel 
* VHF/UHF AMP  07-14-1990
**********
*SRC=J310P;J310P;JFETs N;VHF/UHF;25V 10mA
.MODEL J310P NJF (VTO=-4.25 BETA=2.33E-03 LAMBDA=.035
+ RD=3.50E+00 RS=3.15E+00 IS=7.90E-15
+ PB=1.00 FC=.5 CGS=6.50E-12 CGD=2.50E-12 AF=1 KF=1.4208E-17)
* Siliconix  25 Volt   25 mA  25.0 ohm  Dep-Mode N-Channel 
* VHF/UHF AMP  07-14-1990
**********
*SRC=2N3330;JN3330;JFETs P;Amplifier;20V 10mA
.MODEL JN3330 PJF (VTO=-3.80 BETA=1.6E-03 LAMBDA=.0155
+ RD=1.28E+02 RS=1.02E+02 IS=3.95E-15
+ PB=1.00 FC=.5 CGS=38.4P CGD=11.3P AF=1 KF=7.507E-16)
* Motorola  20 Volt    1 mA 800.0 ohm  Dep-Mode P-Channel 
* Small Sig Amp 07-22-1990
**********
*SRC=2N3331;JN3331;JFETs P;Amplifier;20V 10mA
.MODEL JN3331 PJF(VTO=-5.80 BETA=2.38M LAMBDA=15.5M
+ RD=63.99 RS=76.99 PB=1 FC=.5 IS=7.67E-15
+ CGS=5.98P CGD=5.10P AF=1 KF=1.104E-17)
* Siliconix  20 Volt   10 mA 525.0 ohm  Dep-Mode P-Channel 
* Gen Purp Amp  07-22-1990
**********
*SRC=2N3823;JN3823;JFETs N;VHF/UHF;30V 10mA
.MODEL JN3823 NJF (VTO=-4.50 BETA=3.9M  LAMBDA=.035
+ RD=2.45E+01 RS=2.20E+01 IS=3.95E-15
+ PB=1.00 FC=.5 CGS=10.00E-12 CGD=6.00E-12 AF=1 KF=3.864E-18)
* Siliconix  30 Volt   15 mA 175.0 ohm  Dep-Mode N-Channel 
* SMALL SIG AMP 07-22-1990
**********
*SRC=2N3909;JN3909;JFETs P;Amplifier;20V 10mA
.MODEL JN3909 PJF (VTO=-4 BETA=1.5M LAMBDA=15.5M RD=4.94
+ RS=4.45 IS=7.9F PB=1 FC=.5 CGS=43.0P CGD=43.0P AF=1 KF=3.202E-16)
* Motorola 20 Volt  .02 Amp  35.3 ohm  Dep-Mode P-Channel J-FET  05-06-1991
* Gen Purp Amp 07-22-1990
**********
*SRC=2N3909A;JN3909A;JFETs P;Amplifier;20V 10mA
.MODEL JN3909A PJF (VTO=-4 BETA=2.45M LAMBDA=15.5M RD=4.94
+ RS=4.45 IS=7.9F PB=1 FC=.5 CGS=20.9P CGD=5.57P AF=1 KF=3.202E-16)
* Motorola 20 Volt  .02 Amp  35.3 ohm  Dep-Mode P-Channel J-FET  05-06-1991
* Gen Purp Amp 07-22-1990
**********
*SRC=2N3993;JN3993;JFETs P;Analog Switch;25V 10mA
.MODEL JN3993 PJF (VTO=-5.00-5 BETA=7M LAMBDA=12.4M RD=14
+ RS=12.6 IS=6.32F PB=1 FC=.5 CGS=29.8P CGD=9.95P AF=1 KF=2.2E-16)
* Motorola 25 Volt  20M Amp  100 ohm  Dep-Mode P-Channel J-FET  05-07-1991
**********
*SRC=2N3993A;JN3993A;JFETs P;Analog Switch;25V 10mA
.MODEL JN3993A PJF (VTO=-5.00-5 BETA=7.8M LAMBDA=12.4M RD=14
+ RS=12.6 IS=6.32F PB=1 FC=.5 CGS=19.9P CGD=6.63P AF=1 KF=2.2E-16)
* Motorola  25 Volt  20M Amp  100 ohm  Dep-Mode P-Channel J-FET  05-07-1991
**********
*SRC=2N3994;JN3994;JFETs P;Analog Switch;25V 10mA
.MODEL JN3994 PJF (VTO=-2.10-2.1 BETA=4.8M LAMBDA=12.4M RD=31.5
+ RS=28.3 IS=6.32F PB=1 FC=.5 CGS=29.2P CGD=10.5P AF=1 KF=2.2E-16)
* Motorola  25 Volt  20M Amp  225 ohm  Dep-Mode P-Channel J-FET  05-07-1991
**********
*SRC=2N4091;JN4091;JFETs N;Analog Switch;40V 10mA, Low Ron
.MODEL JN4091 NJF (VTO=-6.20 BETA=3.95M LAMBDA=.010
+ RD=4.20E+00 RS=3.78E+00 IS=2.77E-14
+ PB=1.00 FC=.5 CGS=4.32E-11 CGD=1.59E-11 AF=1 KF=1.4352E-16)
* Siliconix  40 Volt  140 mA  30.0 ohm  Dep-Mode N-Channel 
* Switch  07-22-1990
**********
*SRC=2N4092;JN4092;JFETs N;Analog Switch;40V 10mA, Low Ron
.MODEL JN4092 NJF (VTO=-3.80 BETA=3.95M LAMBDA=.010
+ RD=7.00E+00 RS=6.30E+00 IS=1.78E-14
+ PB=1.00 FC=.5 CGS=4.32E-12 CGD=1.59E-11 AF=1 KF=1.4352E-16)
* Siliconix  40 Volt   90 mA  50.0 ohm  Dep-Mode N-Channel 
* Switch  07-22-1990
**********
*SRC=2N4093;JN4093;JFETs N;Analog Switch;40V 10mA, Low Ron
.MODEL JN4093 NJF (VTO=-3.10 BETA=3.95M LAMBDA=.010
+ RD=1.12E+01 RS=1.01E+01 IS=9.87E-15
+ PB=1.00 FC=.5 CGS=4.32E-12 CGD=1.59E-11 AF=1 KF=1.4352E-16)
* Siliconix  40 Volt   50 mA  80.0 ohm  Dep-Mode N-Channel 
* Switch  07-22-1990
**********
*SRC=2N4119;JN4119;JFETs N;Amplifier;40V 50mA, High Input Imp.
.MODEL JN4119 NJF (VTO=-3.80 BETA=2.20E-04 LAMBDA=7.75M
+ RD=1040 RS=4256 IS=9.87F PB=1.00 FC=.5 CGS=1P CGD=400F
+ AF=1 KF=3.643E-16)
*  40 Volt   50 mA  6Kohm  Dep-Mode N-Channel   07-14-1990
* Siliconix
**********
*SRC=2N4119A;JN4119A;JFETs N;Amplifier;40V 50mA, High Input Imp.
.MODEL JN4119A NJF (VTO=-3.80 BETA=2.20E-04 LAMBDA=7.75M
+ RD=1040 RS=4256 IS=.873F PB=1.00 FC=.5 CGS=1P CGD=400F)
*  40 Volt   50 mA  6K ohm  Dep-Mode N-Channel   07-14-1990
* Siliconix
**********
*SRC=2N4220;JN4220;JFETs N;Gen. Purpose;30V 10mA, Low Leakage
.MODEL JN4220 NJF (VTO=-2.00 BETA=1.250E-03 LAMBDA=.035
+ RD=3.50E+01 RS=1.24E+02 IS=2.07E-15
+ PB=1.00 FC=.5 CGS=14.00E-12 CGD=6.00E-12 AF=1 KF=2.208E-17)
* Siliconix  30 Volt   15 mA 300.0 ohm  Dep-Mode N-Channel 
* VHF AMP  07-22-1990
**********
*SRC=2N4221;JN4221;JFETs N;Gen. Purpose;30V 10mA, Low Leakage
.MODEL JN4221 NJF (VTO=-3.30 BETA=2.30E-03 LAMBDA=.035
+ RD=4.02E+01 RS=9.78E+01 IS=2.07E-15
+ PB=1.00 FC=.5 CGS=14.00E-12 CGD=6.00E-12 AF=1 KF=2.208E-17)
* Siliconix  30 Volt   15 mA 300.0 ohm  Dep-Mode N-Channel 
* VHF AMP  07-22-1990
**********
*SRC=2N4222;JN4222;JFETs N;Gen. Purpose;30V 10mA, Low Leakage
.MODEL JN4222 NJF (VTO=-5.70 BETA=3.050E-03 LAMBDA=.035
+ RD=4.60E+01 RS=6.78E+01 IS=2.07E-15
+ PB=1.00 FC=.5 CGS=14.00E-12 CGD=6.00E-12 AF=1 KF=2.208E-17)
* Siliconix  30 Volt   15 mA 300.0 ohm  Dep-Mode N-Channel 
* VHF AMP  07-22-1990
**********
*SRC=2N4391;JN4391;JFETs N;Analog Switch;40V 50mA, Low Ron
.MODEL JN4391 NJF (VTO=-8.00 BETA=2E-03 LAMBDA=.035
+ RD=4.20E+00 RS=3.78E+00 IS=2.37E-14
+ PB=1.00 FC=.5 CGS=7.00E-12 CGD=1.26E-11 AF=1 KF=1.4352E-16)
* Siliconix  40 Volt  120 mA  30.0 ohm  Dep-Mode N-Channel 
* Switch  07-16-1990
**********
*SRC=2N4392;JN4392;JFETs N;Analog Switch;40V 50mA, Low Ron
.MODEL JN4392 NJF (VTO=-3.00 BETA=4E-03 LAMBDA=.035
+ RD=8.40E+00 RS=7.56E+00 IS=7.90E-15
+ PB=1.00 FC=.5 CGS=7.00E-12 CGD=9.90E-12 AF=1 KF=1.4352E-16
* Siliconix  40 Volt   40 mA  60.0 ohm  Dep-Mode N-Channel 
* Switch  07-16-1990
**********
*SRC=2N4393;JN4393;JFETs N;Analog Switch;40V 50mA, Low Ron
.MODEL JN4393 NJF (VTO=-1.50 BETA=4.00E-03 LAMBDA=.035
+ RD=1.40E+01 RS=1.26E+01 IS=2.37E-15
+ PB=1.00 FC=.5 CGS=7.00E-12 CGD=8.57E-12 AF=1 KF=1.4352E-16
* Siliconix  40 Volt   12 mA 100.0 ohm  Dep-Mode N-Channel 
* Switch  07-16-1990
**********
*SRC=2N4416;JN4416;JFETs N;VHF/UHF;30V 10mA, Low Noise Figure
.MODEL JN4416 NJF (VTO=-3.80 BETA=5.275M LAMBDA=.035
+ RD=3.68E+01 RS=1.08E+02 IS=5.27E-15
+ PB=1.00 FC=.5 CGS=6.20E-12 CGD=2.80E-13 AF=1 KF=3.246E-18)
* Siliconix  30 Volt   20 mA 120.0 ohm  Dep-Mode N-Channel 
*VHF AMP 07-22-1990
* Low Frequency Model. To see higher order parasitic effects use the
* JN4416 model in the RF.LIB
**********
*SRC=2N4856;JN4856;JFETs N;Analog Switch;40V 50mA, Low Ron
.MODEL JN4856 NJF (VTO=-7.00 BETA=5.75M LAMBDA=7.75M
+ RD=5.05E-01 RS=1.25E+00 IS=2.77E-14
+ PB=1.00 FC=.5 CGS=1.39E-11 CGD=1.03E-11 AF=1 KF=1.4352E-16)
* Siliconix  40 Volt  140 mA  25.0 ohm  Dep-Mode N-Channel 
* Switch  07-22-1990
**********
*SRC=2N4857;JN4857;JFETs N;Analog Switch;40V 50mA, Low Ron
.MODEL JN4857 NJF (VTO=-3.80 BETA=5.25E-03 LAMBDA=7.75M
+ RD=9.12E-01 RS=1.54E+01 IS=1.98E-14
+ PB=1.00 FC=.5 CGS=1.39E-11 CGD=1.03E-11 AF=1 KF=1.4352E-16)
* Siliconix  40 Volt   90 mA  40.0 ohm  Dep-Mode N-Channel 
* Switch  07-22-1990
**********
*SRC=2N4858;JN4858;JFETs N;Analog Switch;40V 50mA, Low Ron
.MODEL JN4858 NJF (VTO=-1.80 BETA=5.00E-03 LAMBDA=7.75M
+ RD=1.46E+00 RS=1.64E+01 IS=1.50E-14
+ PB=1.00 FC=.5 CGS=1.39E-11 CGD=1.03E-11 AF=1 KF=1.4352E-16)
* Siliconix  40 Volt   40 mA  60.0 ohm  Dep-Mode N-Channel 
* Switch  07-22-1990
**********
*SRC=2N4859;JN4859;JFETs N;Analog Switch;30V 50mA, Low Ron
.MODEL JN4859 NJF (VTO=-7.00 BETA=5.75M LAMBDA=10.3M
+ RD=5.05E-01 RS=1.25E+00 IS=3.69E-14
+ PB=1.00 FC=.5 CGS=1.39E-11 CGD=1.03E-11 AF=1 KF=1.4352E-16)
* Siliconix  30 Volt  140 mA  25.0 ohm  Dep-Mode N-Channel 
* Switch  07-22-1990
**********
*SRC=2N4860;JN4860;JFETs N;Analog Switch;30V 50mA, Low Ron
.MODEL JN4860 NJF (VTO=-3.80 BETA=5.25E-03 LAMBDA=10.3M
+ RD=9.12E-01 RS=1.54E+01 IS=2.37E-14
+ PB=1.00 FC=.5 CGS=1.39E-11 CGD=1.03E-11 AF=1 KF=1.4352E-16)
* Siliconix  30 Volt   90 mA  40.0 ohm  Dep-Mode N-Channel 
* Switch  07-22-1990
**********
*SRC=2N4861;JN4861;JFETs N;Analog Switch;30V 50mA, Low Ron
.MODEL JN4861 NJF (VTO=-1.80 BETA=5.00E-03 LAMBDA=10.3M
+ RD=1.46E+00 RS=1.64E+01 IS=2.05E-14
+ PB=1.00 FC=.5 CGS=1.39E-11 CGD=1.03E-11 AF=1 KF=1.4352E-16)
* Siliconix  30 Volt   40 mA  60.0 ohm  Dep-Mode N-Channel 
* Switch  07-22-1990
**********
*SRC=2N5197;JN5197;JFETs N;Diff. Amp.;50V 50mA
.MODEL JN5197 NJF (VTO=-2.80 BETA=1.35E-03 LAMBDA=5.43M
+ RD=5.32E+01 RS=1.37E+02 IS=2.77E-15
+ PB=1.00 FC=.5 CGS=9.16E-12 CGD=4.58E-12 AF=1 KF=3.312E-17
* Siliconix  50 Volt    5 mA 400.0 ohm  Dep-Mode N-Channel 
* Dual Amp 07-22-1990
**********
*SRC=2N5457;JN5457;JFETs N;Gen. Purpose;25V 10mA
.MODEL JN5457 NJF (VTO=-3.00 BETA=1.51E-03 LAMBDA=5.16M
+ RD=4.15E+01 RS=6.83E+01 IS=4.74E-15
+ PB=1.00 FC=.5 CGS=1.35E-11 CGD=4.00E-12 AF=1 KF=2.65E-17)
* Siliconix  25 Volt   15 mA 225.0 ohm  Dep-Mode N-Channel 
* Gen Purp Amp  07-22-1990
**********
*SRC=2N5458;JN5458;JFETs N;Gen. Purpose;25V 10mA
.MODEL JN5458 NJF (VTO=-4.00 BETA=2.34E-03 LAMBDA=5.16M
+ RD=3.80E+01 RS=6.52E+01 IS=6.74E-15
+ PB=1.00 FC=.5 CGS=1.35E-11 CGD=4.00E-12 AF=1 KF=2.65E-17)
* Siliconix  25 Volt   15 mA 200.0 ohm  Dep-Mode N-Channel 
* Gen Purp Amp  07-22-1990
**********
*SRC=2N5459;JN5459;JFETs N;Gen. Purpose;25V 10mA
.MODEL JN5459 NJF (VTO=-5.00 BETA=2.90E-03 LAMBDA=5.16M
+ RD=3.45E+01 RS=5.20E+01 IS=8.74E-15
+ PB=1.00 FC=.5 CGS=1.35E-11 CGD=4.00E-12 AF=1 KF=2.65E-17)
* Siliconix  25 Volt   15 mA 175.0 ohm  Dep-Mode N-Channel 
* Gen Purp Amp  07-22-1990
**********
*SRC=2N5460;JN5460;JFETs P;Gen. Purpose;40V 10mA
.MODEL JN5460 PJF (VTO=-3.2 BETA=1.7M LAMBDA=5.63M RD=4.94E+01
+ RS=4.45E+01 IS=1.95F PB=1 FC=.5 CGS=9.0P CGD=4.0P AF=1 KF=1.104E-17)
* Motorola 20 Volt  .02 Amp  35.3 ohm  Dep-Mode P-Channel J-FET  05-06-1991
* Gen Purp Amp 07-22-1990
**********
*SRC=2N5461;JN5461;JFETs P;Gen. Purpose;40V 10mA
.MODEL JN5461 PJF (VTO=-3.5 BETA=2.2M LAMBDA=5.63M RD=3.84E+01
+ RS=4.05E+01 IS=2.81F PB=1 FC=.5 CGS=9.0P CGD=4.0P AF=1 KF=1.104E-17)
* Motorola 20 Volt  .02 Amp  35.3 ohm  Dep-Mode P-Channel J-FET  05-06-1991
* Gen Purp Amp 07-22-1990
**********
*SRC=2N5463;JN5463;JFETs P;Gen. Purpose;60V 10mA
.MODEL JN5463 PJF (VTO=-3.2 BETA=1.7M LAMBDA=5.16M RD=4.94
+ RS=4.45 IS=2.63F PB=1 FC=.5 CGS=9.0P CGD=4.0P AF=1 KF=1.104E-17)
* Motorola 20 Volt  .02 Amp  35.3 ohm  Dep-Mode P-Channel J-FET  05-06-1991
* Gen Purp Amp 07-22-1990
**********
*SRC=2N5464;JN5464;JFETs P;Gen. Purpose;60V 10mA
.MODEL JN5464 PJF (VTO=-3.5 BETA=2.2M LAMBDA=4.77M RD=3.84E+01
+ RS=4.05E+01 IS=2.11F PB=1 FC=.5 CGS=9.0P CGD=4.0P AF=1 KF=1.104E-17)
* Motorola 20 Volt  .02 Amp  35.3 ohm  Dep-Mode P-Channel J-FET  05-06-1991
* Gen Purp Amp 07-22-1990
**********
*SRC=2N5484;JN5484;JFETs N;VHF/UHF;25V 10mA, Low Noise
.MODEL JN5484 NJF (VTO=-2.2 BETA=3.84M LAMBDA=8.85M RD=21
+ RS=18.9 IS=6.77F PB=1 FC=.5 CGS=6P CGD=2.8P AF=1 KF=2.488E-17)
* Siliconix 35 Volt  .03 Amp  150 ohm  Dep-Mode N-Channel   10-09-1990
* High Performance Amp 05-14-1991
**********
*SRC=2N5515;JN5515;JFETs N;Diff. Amp.;40V 10mA
.MODEL JN5515 NJF (VTO=-2.20 BETA=9.16E-04 LAMBDA=6.23M
+ RD=3.98E+01 RS=1.52E+02 IS=3.20E-16
+ PB=1 FC=.5 CGS=8.69E-12 CGD=2.31E-12 AF=1 KF=3.169E-17)
* Siliconix 40 Volt  .01 Amp  250 ohm  Dep-Mode N-Channel   10-09-1990
* 1/2 Differential Amp 05-14-1991
**********
*SRC=2N5638;J2N5638;JFETs N;Analog Switch;30V 50mA
.MODEL J2N5638 NJF (VTO=-2.5 BETA=25M LAMBDA=1000U RD=4.2
+ RS=3.78 IS=13.1F PB=1 FC=.5 CGS=23.1P CGD=14.4P)
*  30 Volt  50M Amp  30 ohm  Dep-Mode N-Channel J-FET  08-16-1995
* J2N5638, MOTOROLA SMALL-SIGNAL TRANSISITOR DATA BOOK,
* DL-126, P.6-66.
**********
*SRC=2N5639;J2N5639;JFETs N;Analog Switch;30V 50mA
.MODEL J2N5639 NJF (VTO=-2.5 BETA=12.5M LAMBDA=1000U RD=8.4
+ RS=7.56 IS=13.1F PB=1 FC=.5 CGS=23.1P CGD=14.4P)
*  30 Volt  50M Amp  60 ohm  Dep-Mode N-Channel J-FET  08-16-1995
* J2N5639, MOTOROLA SMALL-SIGNAL TRANSISITOR DATA BOOK,
* DL-126, P.6-66.
**********
*SRC=MMBF5459;MMBF5459;JFETs N;Gen. Purpose;25V 10mA
.MODEL MMBF5459 NJF (VTO=-4.80 BETA=3.25E-03 LAMBDA=8.86M
+ RD=4.95E+00 RS=4.45E+00 IS=5.27E-15
+ PB=1.00 FC=.5 CGS=1.60E-11 CGD=1.10E-11)
* Motorola 25 Volt  .01 Amp  Dep-Mode N-Channel   05-14-1991
**********
*SRC=M5911;M5911;JFETs N;Diff. Amp.;25V 50mA
.MODEL M5911 NJF (VTO=-3.20 BETA=5.35E-03 LAMBDA=8.86M
+ RD=2.31E+01 RS=2.88E+01 IS=1.58E-14
+ PB=1.00 FC=.5 CGS=8.29E-12 CGD=3.32E-12 AF=1 KF=1.739E-18)
* Siliconix 25 Volt 50 mA  22.3 ohm  Dep-Mode N-Channel   05-25-1990
* 1/2 JFET pair
**********
*SRC=U401;U401;JFETs N;Low Noise;50V 10mA
.MODEL U401 NJF (VTO=-1.50 BETA=1.55E-03 LAMBDA=5.34M
+ RD=3.50E+01 RS=4.15E+01 IS=2.72E-15
+ PB=1.00 FC=.5 CGS=1.15E-11 CGD=6.00E-12 AF=1 KF=3.533E-17)
*  58 Volt   10 mA 250.0 ohm  Dep-Mode N-Channel   07-14-1990
*  Siliconix - Single Device, Normally Packaged as a pair
**********
*SRC=U421;U421;JFETs N;Diff. Amp.;40V 10mA
.MODEL U421 NJF (VTO=-1.20 BETA=4.00E-04 LAMBDA=5.16M
+ RD=2.80E+02 RS=2.52E+02 IS=1.32E-15
+ PB=1.00 FC=.5 CGS=2.32E-12 CGD=2.32E-12 AF=1 KF=6.624E-18)
*  60 Volt   10 mA 2000.0 ohm  Dep-Mode N-Channel   07-14-1990
*  Siliconix - Single Device, Normally Packaged as a pair
**********
*SRC=U430;U430;JFETs N;Diff. Amp.;25V 10mA
.MODEL U430 NJF (VTO=-2.20 BETA=11.5M LAMBDA=8.86M 
+ RD=10.32 RS=14.79 IS=9.03F PB=1 FC=.5 
+ CGS=8.29P CGD=6.63P AF=1 KF=1.421E-17)
* Siliconix  35 Volt  40M Amp  38 ohm  Dep-Mode N-Channel J-FET  
* High Performance, High Slew Amplifiers 05-10-1991
**********
* PHILIPS SEMICONDUCTORS Version: 1.0
**********
*SRC=2N4416A;JN4416A;JFETs N;VHF/UHF;30V 10mA
.MODEL  JN4416A   NJF
+ VTO = -3.5534E+000 BETA = 7.92667E-004
+ LAMBDA = 1.84696E-002 RD = 7.67130E+000
+ RS = 7.67130E+000 IS = 3.33412E-016
+ CGS  = 2.92000E-012 CGD  = 2.26140E-012
+ PB = 1.09077E+000 FC = 5.00000E-001
**********
*SRC=BC264A;BC264A;JFETs N;Audio;30V 12mA
.MODEL  BC264A   NJF
+ VTO = -1.0686E+000 BETA = 1.73071E-003
+ LAMBDA = 2.29157E-002 RD = 9.05115E+000
+ RS = 9.05115E+000 IS = 1.70538E-016
+ CGS  = 2.20000E-012 CGD  = 2.20000E-012
+ PB = 9.78591E-001 FC = 5.00000E-001
**********
*SRC=BC264B;BC264B;JFETs N;Audio;30V 12mA
.MODEL  BC264B   NJF
+ VTO = -1.7564E+000 BETA = 1.18820E-003
+ LAMBDA = 1.87821E-002 RD = 9.84550E+000
+ RS = 9.84550E+000 IS = 3.20636E-016
+ CGS  = 2.15000E-012 CGD  = 2.20000E-012
+ PB = 7.73534E-001 FC = 5.00000E-001
**********
*SRC=BC264C;BC264C;JFETs N;Audio;30V 12mA
.MODEL  BC264C   NJF
+ VTO = -2.0850E+000 BETA = 1.24635E-003
+ LAMBDA = 2.46045E-002 RD = 1.68159E+001
+ RS = 1.68159E+001 IS = 2.16894E-016
+ CGS  = 2.25000E-012 CGD  = 2.25000E-012
+ PB = 9.32203E-001 FC = 5.00000E-001
**********
*SRC=BC264D;BC264D;JFETs N;Audio;30V 12mA
.MODEL  BC264D   NJF
+ VTO = -2.3085E+000 BETA = 1.09045E-003
+ LAMBDA = 2.31754E-002 RD = 7.77648E+000
+ RS = 7.77648E+000 IS = 2.59121E-016
+ CGS  = 2.00000E-012 CGD  = 2.20000E-012
+ PB = 9.91494E-001 FC = 5.00000E-001
**********
*SRC=BF246A;BF246A;JFETs N;Analog Switch;45V 65mA
.MODEL  BF246A   NJF
+ VTO = -5.3298E+000 BETA = 2.86527E-003
+ LAMBDA = 6.19323E-002 RD = 1.62278E+000
+ RS = 1.62278E+000 IS = 1.18582E-015
+ CGS  = 1.05000E-011 CGD  = 1.30000E-011
+ PB = 7.98217E-001 FC = 5.00000E-001
**********
*SRC=BF256A;BF256A;JFETs N;VHF/UHF;30V 10mA
.MODEL  BF256A   NJF
+ VTO = -2.1333E+000 BETA = 1.06491E-003
+ LAMBDA = 1.68673E-002 RD = 1.41231E+001
+ RS = 1.41231E+001 IS = 3.50865E-016
+ CGS  = 2.10000E-012 CGD  = 2.30000E-012
+ PB = 7.73895E-001 FC = 5.00000E-001
**********
*SRC=BF256B;BF256B;JFETs N;VHF/UHF;30V 10mA
.MODEL  BF256B   NJF
+ VTO = -2.3085E+000 BETA = 1.09045E-003
+ LAMBDA = 2.31754E-002 RD = 7.77648E+000
+ RS = 7.77648E+000 IS = 2.59121E-016
+ CGS  = 2.00000E-012 CGD  = 2.20000E-012
+ PB = 9.91494E-001 FC = 5.00000E-001
**********
*SRC=BF410A;BF410A;JFETs N;VHF/UHF;20V 30mA
.MODEL  BF410A   NJF
+ VTO = -8.8094E-001 BETA = 2.01845E-003
+ LAMBDA = 1.50475E-002 RD = 3.57223E+000
+ RS = 3.57223E+000 IS = 1.05515E-013
+ CGS  = 2.80000E-012 CGD  = 4.27000E-012
+ PB = 6.18391E-001 FC = 5.00000E-001
**********
*SRC=BF410B;BF410B;JFETs N;VHF/UHF;20V 30mA
.MODEL  BF410B   NJF
+ VTO = -1.9058E+000 BETA = 1.54719E-003
+ LAMBDA = 1.72995E-002 RD = 3.06677E+000
+ RS = 3.06677E+000 IS = 7.02360E-014
+ CGS  = 4.18000E-012 CGD  = 2.37000E-012
+ PB = 7.16850E-001 FC = 5.00000E-001
**********
*SRC=BF410C;BF410C;JFETs N;VHF/UHF;20V 30mA
.MODEL  BF410C   NJF
+ VTO = -2.3973E+000 BETA = 1.31099E-003
+ LAMBDA = 1.70958E-002 RD = 3.03493E+000
+ RS = 3.03493E+000 IS = 5.66111E-014
+ CGS  = 3.42000E-012 CGD  = 2.68000E-012
+ PB = 8.25674E-001 FC = 5.00000E-001
**********
*SRC=BF410D;BF410D;JFETs N;VHF/UHF;20V 30mA
.MODEL  BF410D   NJF
+ VTO = -3.1715E+000 BETA = 1.22441E-003
+ LAMBDA = 1.98434E-002 RD = 2.61448E+000
+ RS = 2.61448E+000 IS = 3.88189E-014
+ CGS  = 5.40000E-012 CGD  = 4.08000E-012
+ PB = 8.59053E-001 FC = 5.00000E-001
**********
*SRC=BF545A;BF545A;JFETs N;Gen. Purpose;
.MODEL  BF545A   NJF
+ VTO = -1.7372E+000 BETA = 1.16621E-003
+ LAMBDA = 1.77211E-002 RD = 9.01678E+000
+ RS = 9.01678E+000 IS = 2.91797E-016
+ CGS  = 2.20000E-012 CGD  = 2.20000E-012
+ PB = 7.80988E-001 FC = 5.00000E-001
**********
*SRC=BF545B;BF545B;JFETs N;Gen. Purpose;
.MODEL  BF545B   NJF
+ VTO = -2.3085E+000 BETA = 1.09045E-003
+ LAMBDA = 2.31754E-002 RD = 7.77648E+000
+ RS = 7.77648E+000 IS = 2.59121E-016
+ CGS  = 2.00000E-012 CGD  = 2.20000E-012
+ PB = 9.91494E-001 FC = 5.00000E-001
**********
*SRC=BF545C;BF545C;JFETs N;Gen. Purpose;
.MODEL  BF545C   NJF
+ VTO = -5.0014E+000 BETA = 5.43157E-004
+ LAMBDA = 2.71505E-002 RD = 1.20869E+001
+ RS = 1.20869E+001 IS = 3.64346E-016
+ CGS  = 2.00000E-012 CGD  = 2.00000E-012
+ PB = 1.24659E+000 FC = 5.00000E-001
**********
*SRC=BFT46;BFT46;JFETs N;Amplifier;25V 10mA
.MODEL  BFT46   NJF
+ VTO = -6.4188E-001 BETA = 1.86172E-003
+ LAMBDA = 2.16604E-002 RD = 9.23044E+000
+ RS = 9.23044E+000 IS = 1.68833E-016
+ CGS  = 2.20000E-012 CGD  = 2.20000E-012
+ PB = 8.27713E-001 FC = 5.00000E-001
**********
*SRC=BFU308;BFU308;JFETs N;VHF/UHF;25V 10mA
.MODEL  BFU308   NJF
+ VTO = -3.2130E+000 BETA = 3.33257E-003
+ LAMBDA = 2.34410E-002 RD = 1.50212E+000
+ RS = 1.50212E+000 IS = 3.82746E-016
+ CGS  = 7.60000E-012 CGD  = 6.70000E-012
+ PB = 7.76379E-001 FC = 5.00000E-001
**********
*SRC=BFU309;BFU309;JFETs N;VHF/UHF;25V 10mA
.MODEL  BFU309   NJF
+ VTO = -2.3973E+000 BETA = 3.81468E-003
+ LAMBDA = 3.80761E-002 RD = 2.33008E+000
+ RS = 2.33008E+000 IS = 3.02702E-016
+ CGS  = 7.00000E-012 CGD  = 6.20000E-012
+ PB = 6.83767E-001 FC = 5.00000E-001
**********
*SRC=BFU310;BFU310;JFETs N;VHF/UHF;25V 10mA
.MODEL  BFU310   NJF
+ VTO = -3.8366E+000 BETA = 2.88371E-003
+ LAMBDA = 2.00998E-002 RD = 1.53610E+000
+ RS = 1.53610E+000 IS = 4.18900E-016
+ CGS  = 7.90000E-012 CGD  = 6.70000E-012
+ PB = 7.58274E-001 FC = 5.00000E-001
**********
*SRC=BFW10;BFW10;JFETs N;Low Noise;30V 20mA
.MODEL  BFW10   NJF
+ VTO = -2.3085E+000 BETA = 1.09045E-003
+ LAMBDA = 2.31754E-002 RD = 7.77648E+000
+ RS = 7.77648E+000 IS = 2.59121E-016
+ CGS  = 2.00000E-012 CGD  = 2.20000E-012
+ PB = 9.91494E-001 FC = 5.00000E-001
**********
*SRC=BFW11;BFW11;JFETs N;Low Noise;30V 10mA
.MODEL  BFW11   NJF
+ VTO = -2.0850E+000 BETA = 1.24635E-003
+ LAMBDA = 2.46045E-002 RD = 1.68159E+001
+ RS = 1.68159E+001 IS = 2.16894E-016
+ CGS  = 2.25000E-012 CGD  = 2.25000E-012
+ PB = 9.32203E-001 FC = 5.00000E-001
**********
*SRC=BFW12;BFW12;JFETs N;Low Power;30V 5mA
.MODEL  BFW12   NJF
+ VTO = -1.0686E+000 BETA = 1.73071E-003
+ LAMBDA = 2.29157E-002 RD = 9.05115E+000
+ RS = 9.05115E+000 IS = 1.70538E-016
+ CGS  = 2.20000E-012 CGD  = 2.20000E-012
+ PB = 9.78591E-001 FC = 5.00000E-001
**********
*SRC=BFW13;BFW13;JFETs N;Low Power;30V 1.5mA
.MODEL  BFW13   NJF
+ VTO = -6.4188E-001 BETA = 1.86172E-003
+ LAMBDA = 2.16604E-002 RD = 9.23044E+000
+ RS = 9.23044E+000 IS = 1.68833E-016
+ CGS  = 2.20000E-012 CGD  = 2.20000E-012
+ PB = 8.27713E-001 FC = 5.00000E-001
**********
*SRC=BFW61;BFW61;JFETs N;Amplifier;25V 20mA
.MODEL  BFW61   NJF
+ VTO = -2.3085E+000 BETA = 1.09045E-003
+ LAMBDA = 2.31754E-002 RD = 7.77648E+000
+ RS = 7.77648E+000 IS = 2.59121E-016
+ CGS  = 2.00000E-012 CGD  = 2.20000E-012
+ PB = 9.91494E-001 FC = 5.00000E-001
**********
*SRC=BSJ108;BSJ108;JFETs N;Analog Switch;25V 50mA
.MODEL  BSJ108   NJF
+ VTO = -5.4528E+000 BETA = 1.11439E-002
+ LAMBDA = 1.00000E-001 RD = 3.11414E+000
+ RS = 3.11414E+000 IS = 6.90136E-015
+ CGS  = 2.75000E-011 CGD  = 4.30000E-011
+ PB = 5.90984E-001 FC = 5.00000E-001
**********
*SRC=BSJ109;BSJ109;JFETs N;Analog Switch;25V 50mA
.MODEL  BSJ109   NJF
+ VTO = -5.5556E+000 BETA = 7.61416E-003
+ LAMBDA = 1.41466E-001 RD = 7.11991E-001
+ RS = 7.11991E-001 IS = 1.77087E-015
+ CGS  = 2.70000E-011 CGD  = 4.60000E-011
+ PB = 5.77536E-001 FC = 5.00000E-001
**********
*SRC=BSJ110;BSJ110;JFETs N;Analog Switch;25V 10mA
.MODEL  BSJ110   NJF
+ VTO = -2.7780E+000 BETA = 1.20784E-002
+ LAMBDA = 1.74601E-001 RD = 1.03157E+000
+ RS = 1.03157E+000 IS = 4.42809E-015
+ CGS  = 2.80000E-011 CGD  = 3.80000E-011
+ PB = 4.64070E-001 FC = 5.00000E-001
**********
*SRC=BSR56;BSR56;JFETs N;Analog Switch;40V 50mA
.MODEL  BSR56   NJF