* Unofficial LTSpice Wiki Page: http://ltwiki.org/index.php?title=Standard.jft Date of latest edit	02:35, 4 July 2013

.model kp365 njf vt0=-1.2 beta=10m lambda=0.03 rd=8 rs=8 cgs=4p cgd=5p pb=1 is=50p fc=0. kf=2.f af=1 MFG=USSR
.model kp302a njf vt0=-2 beta=0.0025 lambda=30m rd=15 rs=3 cgs=12p cgd=25p pb=0.5 is=114.5f fc=0.5 kf=4e-16 af=1 MFG=USSR
.MODEL KP103E PJF VTO=-0.8 BETA=0.0008 LAMBDA=0.02 RD=40 RS=7 IS=1.2195e-11 CGD=26.5P CGS=12P PB=1 B=1 KF=1e-18 AF=0.7 FC=0.5 MFG=USSR
.MODEL KP103i PJF VTO=-1.5 BETA=0.00068 LAMBDA=0.02 RD=40 RS=7 IS=1.2195e-11 CGD=26.5P CGS=12P PB=1 B=1 KF=1e-18 AF=0.7 FC=0.5 MFG=USSR
.MODEL KP103J PJF VTO=-1.2 BETA=0.00072 LAMBDA=0.02 RD=40 RS=7 IS=1.2195e-11 CGD=26.5P CGS=12P PB=1 B=1 KF=1e-18 AF=0.7 FC=0.5 MFG=USSR
.MODEL KP103K PJF VTO=-2 BETA=0.0006 LAMBDA=0.02 RD=40 RS=7 IS=1.2195e-11 CGD=26.5P CGS=12P PB=1 B=1 KF=1e-18 AF=0.7 FC=0.5 MFG=USSR
.MODEL KP103L PJF VTO=-2.5 BETA=0.00055 LAMBDA=0.02 RD=40 RS=7 IS=1.2195e-11 CGD=26.5P CGS=12P PB=1 B=1 KF=1e-18 AF=0.7 FC=0.5 MFG=USSR
.MODEL KP103M PJF VTO=-3.2 BETA=0.0005 LAMBDA=0.02 RD=40 RS=7 IS=1.2195e-11 CGD=26.5P CGS=12P PB=1 B=1 KF=1e-18 AF=0.7 FC=0.5 MFG=USSR
.model kp303a njf vt0=-0.9 beta=1.6m lambda=0.02 rd=30 rs=35 cgs=5p cgd=4p is=100f B=1.2 kf=1.e-16 af=1.4 MFG=USSR
.model kp303b njf vt0=-2.0 beta=2.0m lambda=0.02 rd=30 rs=35 cgs=5p cgd=4p is=100f B=1.2 kf=1.f af=1 MFG=USSR
.MODEL KP303G NJF VTO=-2.5 BETA=0.001 LAMBDA=0.025 RD=22 RS=17 IS=1.145e-13 CGD=4p CGS=5p PB=0.5 B=1.2 KF=7e-17 AF=1.3 FC=0.5 MFG=USSR
.model kp307a njf vt0=-1.5 beta=0.0023 lambda=15m rd=20 rs=15 cgs=5p cgd=1.5p pb=0.5 is=114.5f fc=0.5 kf=5e-18 af=0.5 MFG=USSR
.model kp307b njf vt0=-2.2 beta=0.002 lambda=15m rd=20 rs=15 cgs=5p cgd=1.5p pb=0.5 is=114.5f fc=0.5 kf=5e-18 af=0.5 MFG=USSR
.MODEL KPS104A NJF VTO=-0.4 BETA=0.002 LAMBDA=0.005 RD=20 RS=15 IS=1.145e-13 CGD=1.2p CGS=4p PB=0.5 B=1 KF=5e-18 AF=0.5 FC=0.5 MFG=USSR
.MODEL KPS104V NJF VTO=-0.9 BETA=0.0015 LAMBDA=0.008 RD=20 RS=15 IS=1.145e-13 CGD=1.2p CGS=4p PB=0.5 B=1 KF=5e-18 AF=0.5 FC=0.5 MFG=USSR
.MODEL KPS104G NJF VTO=-1.5 BETA=0.001 LAMBDA=0.01 RD=20 RS=15 IS=1.145e-13 CGD=1.2p CGS=4p PB=0.5 B=1 KF=5e-18 AF=0.5 FC=0.5 MFG=USSR
.model KP903A njf vto=-6 beta=13m lambda=10m rs=0.36 rd=0.3 is=1n cgd=80p cgs=80p kf=3.e-17 af=0.5 b=1 MFG=USSR
.MODEL 2N3370 NJF(VTO=-0.65 BETA=766.8u BETATCE=-0.5 LAMBDA=9m RD=1 RS=1 CGS=2.916p CGD=2.8p PB=0.5 IS=114.5f XTI=3 AF=1 FC=0.5 N=1 NR=2 MFG=NSC)
.MODEL 2N3458 NJF(VTO=-3.05 BETA=700u BETATCE=-0.5 LAMBDA=6m RD=1 RS=1 CGS=2.916p CGD=2.8p PB=0.5 IS=114.5f XTI=3 AF=1 FC=0.5 N=1 NR=2 MFG=NSC)
.MODEL 2N3459 NJF(VTO=-1.4 BETA=1.265m BETATCE=-0.5 LAMBDA=4m RD=1 RS=1 CGS=2.916p CGD=2.8p PB=0.5 IS=114.5f XTI=3 AF=1 FC=0.5 N=1 NR=2 MFG=NSC)
.MODEL 2N3684 NJF(VTO=-3.18 BETA=348.1u BETATCE=-0.5 LAMBDA=11.67m RD=1 RS=1 CGS=2.083p CGD=2p PB=0.5 IS=114.5f XTI=3 AF=1 FC=0.5 N=1 NR=2 MFG=NSC)
.MODEL 2N3685 NJF(VTO=-1.691 BETA=543.4u BETATCE=-0.5 LAMBDA=5.833m RD=1 RS=1 CGS=2.083p CGD=2p PB=0.5 IS=114.5f XTI=3 AF=1 FC=0.5 N=1 NR=2 MFG=NSC)
.MODEL 2N3686 NJF(VTO=-0.957 BETA=723.7u BETATCE=-0.5 LAMBDA=2.333m RD=1 RS=1 CGS=2.083p CGD=2p PB=0.5 IS=114.5f XTI=3 AF=1 FC=0.5 N=1 NR=2 MFG=NSC)
.MODEL 2N3687 NJF(VTO=-0.5102 BETA=840u BETATCE=-0.5 LAMBDA=1.167m RD=1 RS=1 CGS=2.083p CGD=2p PB=0.5 IS=114.5f XTI=3 AF=1 FC=0.5 N=1 NR=2 MFG=NSC)
.model 2N3819 NJF(Beta=1.304m Betatce=-.5 Rd=1 Rs=1 Lambda=2.25m Vto=-3 Vtotc=-2.5m Is=33.57f Isr=322.4f N=1 Nr=2 Xti=3 Alpha=311.7u Vk=243.6 Cgd=1.6p M=.3622 Pb=1 Fc=.5 Cgs=2.414p Kf=9.882E-18 Af=1 mfg=Vishay)
.MODEL 2N3821 NJF(VTO=-0.8467 BETA=1.517m BETATCE=-0.5 LAMBDA=2.045m RD=1 RS=1 CGS=4.627p CGD=4p PB=0.5 IS=181.3f XTI=3 AF=1 FC=0.5 N=1 NR=2 MFG=NSC)
.MODEL 2N3822 NJF(VTO=-1.962 BETA=1.1m BETATCE=-0.5 LAMBDA=4.09m RD=1 RS=1 CGS=4.627p CGD=4p PB=0.5 IS=181.3f XTI=3 AF=1 FC=0.5 N=1 NR=2 MFG=NSC)
.MODEL 2N3823 NJF(VTO=-3.3 BETA=1.17m BETATCE=-0.5 LAMBDA=4m RD=1 RS=1 CGS=2.414p CGD=1.6p PB=1 IS=33.57f XTI=3 AF=1 FC=0.5 N=1 NR=2 MFG=NSC)
.MODEL 2N3824 NJF(VTO=-2.139 BETA=436.4u BETATCE=-0.5 LAMBDA=5.333m RD=1 RS=1 CGS=4.627p CGD=4p PB=0.5 IS=181.3f XTI=3 AF=1 FC=0.5 N=1 NR=2 MFG=NSC)
.MODEL 2N3921 NJF(VTO=-1.799 BETA=1.57m BETATCE=-0.5 LAMBDA=4m RD=1 RS=1 CGS=4.4p CGD=8.8p PB=1 IS=24.55f XTI=3 AF=1 FC=0.5 N=1 NR=2 MFG=NSC)
.MODEL 2N3954 NJF(VTO=-2.033 BETA=768.3u BETATCE=-0.5 LAMBDA=4.25m RD=1 RS=1 CGS=0.86p CGD=1.71p PB=1 IS=24.55f XTI=3 AF=1 FC=0.5 N=1 NR=2 MFG=NSC)
.MODEL 2N3966 NJF(VTO=-4.876 BETA=650u BETATCE=-0.5 LAMBDA=15m RD=1 RS=1 CGS=2.414p CGD=1.6p PB=1 IS=33.57f XTI=3 AF=1 FC=0.5 N=1 NR=2 MFG=NSC)
.MODEL 2N3967 NJF(VTO=-2.49 BETA=754.7u BETATCE=-0.5 LAMBDA=3.667m RD=1 RS=1 CGS=3.742p CGD=4p PB=0.5 IS=181.3f XTI=3 AF=1 FC=0.5 N=1 NR=2 MFG=NSC)
.MODEL 2N3970 NJF(VTO=-4.514 BETA=4.032m BETATCE=-0.5 LAMBDA=23m RD=1 RS=1 CGS=9.31p CGD=10.48p PB=1 IS=205.2f XTI=3 AF=1 FC=0.5 N=1 NR=2 MFG=NSC)
.MODEL 2N3971 NJF(VTO=-2.598 BETA=6.313m BETATCE=-0.5 LAMBDA=13m RD=1 RS=1 CGS=9.31p CGD=10.48p PB=1 IS=205.2f XTI=3 AF=1 FC=0.5 N=1 NR=2 MFG=NSC)
.MODEL 2N3972 NJF(VTO=-1.403 BETA=9.109m BETATCE=-0.5 LAMBDA=6m RD=1 RS=1 CGS=9.31p CGD=10.48p PB=1 IS=205.2f XTI=3 AF=1 FC=0.5 N=1 NR=2 MFG=NSC)
.MODEL 2N4084 NJF(VTO=-1.799 BETA=1.57m BETATCE=-0.5 LAMBDA=4m RD=1 RS=1 CGS=4.4p CGD=8.8p PB=1 IS=24.55f XTI=3 AF=1 FC=0.5 N=1 NR=2 MFG=NSC)
.MODEL 2N4091 NJF(VTO=-8.0337 BETA=1.56450m BETATCE=-0.5 LAMBDA=10m RD=0.825115 RS=0.825115 CGS=8.75p CGD=13.75p PB=0.772344 IS=0.65462f XTI=3 AF=1 FC=0.5 N=1 NR=2 MFG=PHILIPS)
.MODEL 2N4092 NJF(VTO=-2.2088 BETA=4.22567m BETATCE=-0.5 LAMBDA=6.40354E-2 RD=1.14866 RS=1.14866 CGS=8.25p CGD=8.25p PB=7.55484E-1 IS=4.90805E-16 XTI=3 AF=1 FC=0.5 N=1 NR=2 MFG=PHILIPS)
.MODEL 2N4093 NJF(VTO=-1.3550 BETA=6.94457m BETATCE=-0.5 LAMBDA=3.97876E-2 RD=3.51442 RS=3.51442 CGS=8p CGD=8.3p PB=7.27722E-1 IS=6.91657E-16 XTI=3 AF=1 FC=0.5 N=1 NR=2 MFG=PHILIPS)
.model 2N4117 NJF(Beta=33.07u Betatce=-.5 Rd=1 Rs=1 Lambda=13m Vto=-1.2 Vtotc=-2.5m Is=5.261f Isr=51.03f N=1 Nr=2 Xti=3 Alpha=797.9n Vk=90.45 Cgd=3.94p M=.4335 Pb=1 Fc=.5 Cgs=4.93p Kf=45.61E-18 Af=1 mfg=Fairchild)
.MODEL 2N4117A NJF(VTO=-1.1 BETA=49.01u BETATCE=-0.5 LAMBDA=13m RD=1 RS=1 CGS=4.93p CGD=3.94p PB=1 IS=5.261f XTI=3 AF=1 FC=0.5 N=1 NR=2 MFG=NSC)
.model 2N4118 NJF(Beta=52.58u Betatce=-.5 Rd=1 Rs=1 Lambda=15m Vto=-1.732 Vtotc=-2.5m Is=5.261f Isr=51.03f N=1 Nr=2 Xti=3 Alpha=797.9n Vk=90.45 Cgd=3.94p M=.4335 Pb=1 Fc=.5 Cgs=4.93p Kf=76.7E-18 Af=1 mfg=Fairchild)
.model 2N4119 NJF(Beta=68.08u Betatce=-.5 Rd=1 Rs=1 Lambda=19m Vto=-2.536 Vtotc=-2.5m Is=5.261f Isr=51.03f N=1 Nr=2 Xti=3 Alpha=797.9n Vk=90.45 Cgd=3.94p M=.4335 Pb=1 Fc=.5 Cgs=4.93p Kf=101.8E-18 Af=1 mfg=Fairchild)
.MODEL 2N4220 NJF(VTO=-1.195 BETA=819.8u BETATCE=-0.5 LAMBDA=3.266m RD=1 RS=1 CGS=4.627p CGD=4p PB=0.5 IS=181.3f XTI=3 AF=1 FC=0.5 N=1 NR=2 MFG=NSC)
.MODEL 2N4221 NJF(VTO=-2.139 BETA=726.3u BETATCE=-0.5 LAMBDA=4.15m RD=1 RS=1 CGS=4.627p CGD=4p PB=0.5 IS=181.3f XTI=3 AF=1 FC=0.5 N=1 NR=2 MFG=NSC)
.MODEL 2N4222 NJF(VTO=-4.1 BETA=436.4u BETATCE=-0.5 LAMBDA=5.333m RD=1 RS=1 CGS=4.627p CGD=4p PB=0.5 IS=181.3f XTI=3 AF=1 FC=0.5 N=1 NR=2 MFG=NSC)
.MODEL 2N4223 NJF(VTO=-3.05 BETA=1.04m BETATCE=-0.5 LAMBDA=5.5m RD=1 RS=1 CGS=2.414p CGD=1.6p PB=1 IS=33.57f XTI=3 AF=1 FC=0.5 N=1 NR=2 MFG=NSC)
.model 2N4338 NJF(Beta=781u Betatce=-.5 Rd=1 Rs=1 Lambda=1.167m Vto=-.6606 Vtotc=-2.5m Is=114.5f Isr=1.091p N=1 Nr=2 Xti=3 Alpha=506.8u Vk=251.7 Cgd=2.8p M=.2271 Pb=.5 Fc=.5 Cgs=2.916p Kf=2.918E-18 Af=1 mfg=Fairchild)
.MODEL 2N4339 NJF(VTO=-1.218 BETA=555.8u BETATCE=-0.5 LAMBDA=3.5m RD=1 RS=1 CGS=2.916p CGD=2.8p PB=0.5 IS=114.5f XTI=3 AF=1 FC=0.5 N=1 NR=2 MFG=NSC)
.MODEL 2N4340 NJF(VTO=-2.001 BETA=471u BETATCE=-0.5 LAMBDA=7m RD=1 RS=1 CGS=2.916p CGD=2.8p PB=0.5 IS=114.5f XTI=3 AF=1 FC=0.5 N=1 NR=2 MFG=NSC)
.MODEL 2N4341 NJF(VTO=-3.336 BETA=387.1u BETATCE=-0.5 LAMBDA=14m RD=1 RS=1 CGS=2.916p CGD=2.8p PB=0.5 IS=114.5f XTI=3 AF=1 FC=0.5 N=1 NR=2 MFG=NSC)
.MODEL 2N4391 NJF(VTO=-8.0337 BETA=1.56450m BETATCE=-0.5 LAMBDA=1.00000E-2 RD=8.25115E-1 RS=8.25115E-1 CGS=8.25000p CGD=1.32500E-11 PB=7.72344E-1 IS=6.54620E-16 XTI=3 AF=1 FC=0.5 N=1 NR=2 MFG=PHILIPS)
.MODEL 2N4392 NJF(VTO=-2.2088 BETA=4.22567m BETATCE=-0.5 LAMBDA=6.40354E-2 RD=1.14866 RS=1.14866 CGS=7.75000p CGD=7.75000p PB=7.55484E-1 IS=4.90805E-16 XTI=3 AF=1 FC=0.5 N=1 NR=2 MFG=PHILIPS)
.model 2N4393 NJF(Beta=9.109m Betatce=-.5 Rd=1 Rs=1 Lambda=6m Vto=-1.422 Vtotc=-2.5m Is=205.2f Isr=1.988p N=1 Nr=2 Xti=3 Alpha=20.98u Vk=123.7 Cgd=4.57p M=.4069 Pb=1 Fc=.5 Cgs=4.06p Kf=123E-18 Af=1 mfg=Fairchild)
.model 2N4416 NJF(Beta=989.4u Betatce=-.5 Rd=1 Rs=1 Lambda=5.5m Vto=-3.06 Vtotc=-2.5m Is=33.57f Isr=322.4f N=1 Nr=2 Xti=3 Alpha=311.7u Vk=243.6 Cgd=1.6p M=.3622 Pb=1 Fc=.5 Cgs=2.414p Kf=7.445E-18 Af=1 mfg=Fairchild)
.MODEL 2N4856 NJF(VTO=-5.3298 BETA=2.86527m BETATCE=-0.5 LAMBDA=6.19323E-2 RD=1.62278 RS=1.62278 CGS=1.05000E-11 CGD=1.30000E-11 PB=7.98217E-1 IS=1.18582f XTI=3 AF=1 FC=0.5 N=1 NR=2 MFG=PHILIPS)
.MODEL 2N4856A NJF(VTO=-5.517 BETA=3.084m BETATCE=-0.5 LAMBDA=11m RD=1 RS=1 CGS=5.07p CGD=5.71p PB=1 IS=205.2f XTI=3 AF=1 FC=0.5 N=1 NR=2 MFG=NSC)
.MODEL 2N4857 NJF(VTO=-3.1621 BETA=5.01519m BETATCE=-0.5 LAMBDA=2.40112E-2 RD=1.48485 RS=1.48485 CGS=1.05000E-11 CGD=1.40000E-11 PB=5.68050E-1 IS=9.11151E-16 XTI=3 AF=1 FC=0.5 N=1 NR=2 MFG=PHILIPS)
.MODEL 2N4857A NJF(VTO=-3.05 BETA=6.313m BETATCE=-0.5 LAMBDA=9.5m RD=1 RS=1 CGS=4.74p CGD=5.34p PB=1 IS=205.2f XTI=3 AF=1 FC=0.5 N=1 NR=2 MFG=NSC)
.MODEL 2N4858 NJF(VTO=-2.4397 BETA=6.09357m BETATCE=-0.5 LAMBDA=5.26244E-2 RD=1.26608 RS=1.26608 CGS=1.05000E-11 CGD=1.10000E-11 PB=6.06848E-1 IS=9.89866E-16 XTI=3 AF=1 FC=0.5 N=1 NR=2 MFG=PHILIPS)
.MODEL 2N4858A NJF(VTO=-2.387 BETA=7.646m BETATCE=-0.5 LAMBDA=8m RD=1 RS=1 CGS=4.74p CGD=5.34p PB=1 IS=205.2f XTI=3 AF=1 FC=0.5 N=1 NR=2 MFG=NSC)
.MODEL 2N4859 NJF(VTO=-5.3298 BETA=2.86527m BETATCE=-0.5 LAMBDA=6.19323E-2 RD=1.62278 RS=1.62278 CGS=1.05000E-11 CGD=1.30000E-11 PB=7.98217E-1 IS=1.18582f XTI=3 AF=1 FC=0.5 N=1 NR=2 MFG=PHILIPS)
.MODEL 2N4859A NJF(VTO=-5.431 BETA=3.084m BETATCE=-0.5 LAMBDA=12m RD=1 RS=1 CGS=5.07p CGD=5.71p PB=1 IS=205.2f XTI=3 AF=1 FC=0.5 N=1 NR=2 MFG=NSC)
.MODEL 2N4860 NJF(VTO=-3.1621 BETA=5.01519m BETATCE=-0.5 LAMBDA=2.40112E-2 RD=1.48485 RS=1.48485 CGS=1.05000E-11 CGD=1.40000E-11 PB=5.68050E-1 IS=9.11151E-16 XTI=3 AF=1 FC=0.5 N=1 NR=2 MFG=PHILIPS)
.MODEL 2N4860A NJF(VTO=-2.998 BETA=6.313m BETATCE=-0.5 LAMBDA=10m RD=1 RS=1 CGS=4.74p CGD=5.34p PB=1 IS=205.2f XTI=3 AF=1 FC=0.5 N=1 NR=2 MFG=NSC)
.MODEL 2N4861 NJF(VTO=-2.4397 BETA=6.09357m BETATCE=-0.5 LAMBDA=5.26244E-2 RD=1.26608 RS=1.26608 CGS=1.05000E-11 CGD=1.10000E-11 PB=6.06848E-1 IS=9.89866E-16 XTI=3 AF=1 FC=0.5 N=1 NR=2 MFG=PHILIPS)
.MODEL 2N4861A NJF(VTO=-2.308 BETA=8.362m BETATCE=-0.5 LAMBDA=8m RD=1 RS=1 CGS=4.74p CGD=5.34p PB=1 IS=205.2f XTI=3 AF=1 FC=0.5 N=1 NR=2 MFG=NSC)
.MODEL 2N5045 NJF(VTO=-1.95 BETA=1.271m BETATCE=-0.5 LAMBDA=3.5m RD=1 RS=1 CGS=2.85p CGD=5.71p PB=1 IS=24.55f XTI=3 AF=1 FC=0.5 N=1 NR=2 MFG=NSC)
.MODEL 2N5078 NJF(VTO=-3.97 BETA=850.8u BETATCE=-0.5 LAMBDA=6.75m RD=1 RS=1 CGS=2.414p CGD=1.6p PB=1 IS=33.57f XTI=3 AF=1 FC=0.5 N=1 NR=2 MFG=NSC)
.MODEL 2N5103 NJF(VTO=-1.85 BETA=1.426m BETATCE=-0.5 LAMBDA=3.167m RD=1 RS=1 CGS=2.414p CGD=1.6p PB=1 IS=33.57f XTI=3 AF=1 FC=0.5 N=1 NR=2 MFG=NSC)
.MODEL 2N5105 NJF(VTO=-2.5 BETA=1.464m BETATCE=-0.5 LAMBDA=3.167m RD=1 RS=1 CGS=2.414p CGD=1.6p PB=1 IS=33.57f XTI=3 AF=1 FC=0.5 N=1 NR=2 MFG=NSC)
.MODEL 2N5196 NJF(VTO=-2.257 BETA=812.9u BETATCE=-0.5 LAMBDA=5m RD=1 RS=1 CGS=1.64p CGD=3.28p PB=1 IS=24.55f XTI=3 AF=1 FC=0.5 N=1 NR=2 MFG=NSC)
.Model 2N5196_ NJF(VTO=-2.1 BETA=850u LAMBDA=5m RD=0.9 RS=0.9 CGS=1.6p CGD=3.5p PB=1 IS=35.0f FC=.5 KF=3.4E-18 AF=1)
.MODEL 2N5358 NJF(VTO=-0.8005 BETA=1.064m BETATCE=-0.5 LAMBDA=2.571m RD=1 RS=1 CGS=4.627p CGD=4p PB=0.5 IS=181.3f XTI=3 AF=1 FC=0.5 N=1 NR=2 MFG=NSC)
.MODEL 2N5397 NJF(VTO=-3.679 BETA=1.242m BETATCE=-0.5 LAMBDA=8m RD=1 RS=1 CGS=3.598p CGD=2.6p PB=1 IS=101.9f XTI=3 AF=1 FC=0.5 N=1 NR=2 MFG=NSC)
.MODEL 2N5398 NJF(VTO=-3.323 BETA=1.242m BETATCE=-0.5 LAMBDA=8m RD=1 RS=1 CGS=3.383p CGD=3p PB=1 IS=101.9f XTI=3 AF=1 FC=0.5 N=1 NR=2 MFG=NSC)
.model 2N5432 NJF(Beta=9.109m Betatce=-.5 Rd=1 Rs=1 Lambda=50m Vto=-5.397 Vtotc=-2.5m Is=533.7f Isr=5.174p N=1 Nr=2 Xti=3 Alpha=152.8u Vk=111.9 Cgd=35.6p M=.4283 Pb=1 Fc=.5 Cgs=35.6p Kf=124.3E-18 Af=1 mfg=Fairchild)
.MODEL 2N5433 NJF(VTO=-4.16 BETA=12.42m BETATCE=-0.5 LAMBDA=40m RD=1 RS=1 CGS=35.6p CGD=35.6p PB=1 IS=533.7f XTI=3 AF=1 FC=0.5 N=1 NR=2 MFG=NSC)
.model 2N5434 NJF(Beta=18m Betatce=-.5 Rd=1 Rs=1 Lambda=25m Vto=-1.9 Vtotc=-2.5m Is=.5p Isr=5p Alpha=150u Vk=110 Cgd=35p M=.4283 Cgs=35p mfg=Vishay)
.MODEL 2N5452 NJF(VTO=-2.017 BETA=768.3u BETATCE=-0.5 LAMBDA=2.5m RD=1 RS=1 CGS=0.86p CGD=1.71p PB=1 IS=24.55f XTI=3 AF=1 FC=0.5 N=1 NR=2 MFG=NSC)
.model 2N5484 NJF(Is=.25p Alpha=1e-4 Vk=80 Vto=-1.5 Vtotc=-3m Beta=3.0m Lambda=10m Betatce=-.5 Rd=10 Rs=10 Cgs=4p Cgd=4p Kf=3e-17 mfg=Siliconix)
.model 2N5485 NJF(Is=.25p Alpha=1e-4 Vk=80 Vto=-2.0 Vtotc=-3m Beta=3.5m Lambda=10m Betatce=-.5 Rd=10 Rs=10 Cgs=4p Cgd=4p Kf=3e-17 mfg=Siliconix)
.model 2N5486 NJF(Is=.25p Alpha=1e-4 Vk=80 Vto=-4.0 Vtotc=-3m Beta=4.0m Lambda=10m Betatce=-.5 Rd=10 Rs=10 Cgs=4p Cgd=4p Kf=3e-17 mfg=Siliconix)
.MODEL 2N5515 NJF(VTO=-2.5 BETA=518.5u BETATCE=-0.5 LAMBDA=300u RD=1 RS=1 CGS=14.64p CGD=8p PB=0.5 IS=52.8f XTI=3 AF=1 FC=0.5 N=1 NR=2 MFG=NSC)
.MODEL 2N5545 NJF(VTO=-2 BETA=1.271m BETATCE=-0.5 LAMBDA=4m RD=1 RS=1 CGS=1.64p CGD=3.28p PB=1 IS=24.55f XTI=3 AF=1 FC=0.5 N=1 NR=2 MFG=NSC)
.MODEL 2N5556 NJF(VTO=-0.875 BETA=2.194m BETATCE=-0.5 LAMBDA=3.8m RD=1 RS=1 CGS=2.414p CGD=1.6p PB=1 IS=33.57f XTI=3 AF=1 FC=0.5 N=1 NR=2 MFG=NSC)
.MODEL 2N5557 NJF(VTO=-1.805 BETA=1.307m BETATCE=-0.5 LAMBDA=4m RD=1 RS=1 CGS=2.414p CGD=1.6p PB=1 IS=33.57f XTI=3 AF=1 FC=0.5 N=1 NR=2 MFG=NSC)
.MODEL 2N5558 NJF(VTO=-2.91 BETA=864u BETATCE=-0.5 LAMBDA=6.75m RD=1 RS=1 CGS=2.414p CGD=1.6p PB=1 IS=33.57f XTI=3 AF=1 FC=0.5 N=1 NR=2 MFG=NSC)
.MODEL 2N5565 NJF(VTO=-1.447 BETA=9.109m BETATCE=-0.5 LAMBDA=7.5m RD=1 RS=1 CGS=9.76p CGD=8.67p PB=1 IS=94.42f XTI=3 AF=1 FC=0.5 N=1 NR=2 MFG=NSC)
.MODEL 2N5902 NJF(VTO=-1.652 BETA=120u BETATCE=-0.5 LAMBDA=900u RD=1 RS=1 CGS=1.23p CGD=1.23p PB=1 IS=16.33f XTI=3 AF=1 FC=0.5 N=1 NR=2 MFG=NSC)
.MODEL 2N5911 NJF(VTO=-2.694 BETA=2.203m BETATCE=-0.5 LAMBDA=12m RD=1 RS=1 CGS=3.65p CGD=2.822p PB=1 IS=94.35f XTI=3 AF=1 FC=0.5 N=1 NR=2 MFG=NSC)
.MODEL 2N6483 NJF(VTO=-2.5 BETA=518.5u BETATCE=-0.5 LAMBDA=300u RD=1 RS=1 CGS=14.64p CGD=8p PB=0.5 IS=52.8f XTI=3 AF=1 FC=0.5 N=1 NR=2 MFG=NSC)
.MODEL BC264A NJF(VTO=-1.0686 BETA=1.73071m BETATCE=-0.5 LAMBDA=2.29157E-2 RD=9.05115 RS=9.05115 CGS=2.20000p CGD=2.20000p PB=9.78591E-1 IS=1.70538E-16 XTI=3 AF=1 FC=0.5 N=1 NR=2 MFG=PHILIPS)
.MODEL BC264B NJF(VTO=-1.7564 BETA=1.18820m BETATCE=-0.5 LAMBDA=1.87821E-2 RD=9.84550 RS=9.84550 CGS=2.15000p CGD=2.20000p PB=7.73534E-1 IS=3.20636E-16 XTI=3 AF=1 FC=0.5 N=1 NR=2 MFG=PHILIPS)
.MODEL BC264C NJF(VTO=-2.0850 BETA=1.24635m BETATCE=-0.5 LAMBDA=2.46045E-2 RD=1.68159E1 RS=1.68159E1 CGS=2.25000p CGD=2.25000p PB=9.32203E-1 IS=2.16894E-16 XTI=3 AF=1 FC=0.5 N=1 NR=2 MFG=PHILIPS)
.MODEL BC264D NJF(VTO=-2.3085 BETA=1.09045m BETATCE=-0.5 LAMBDA=2.31754E-2 RD=7.77648 RS=7.77648 CGS=2.00000p CGD=2.20000p PB=9.91494E-1 IS=2.59121E-16 XTI=3 AF=1 FC=0.5 N=1 NR=2 MFG=PHILIPS)
.MODEL BF245A NJF(VTO=-1.7372 BETA=1.16621m BETATCE=-0.5 LAMBDA=1.77211E-2 RD=9.01678 RS=9.01678 CGS=2.20000p CGD=2.20000p PB=7.80988E-1 IS=2.91797E-16 XTI=3 AF=1 FC=0.5 N=1 NR=2 MFG=PHILIPS)
.MODEL BF245B NJF(VTO=-2.3085 BETA=1.09045m BETATCE=-0.5 LAMBDA=2.31754E-2 RD=7.77648 RS=7.77648 CGS=2.00000p CGD=2.20000p PB=9.91494E-1 IS=2.59121E-16 XTI=3 AF=1 FC=0.5 N=1 NR=2 MFG=PHILIPS)
.MODEL BF245C NJF(VTO=-5.0014 BETA=5.43157E-4 BETATCE=-0.5 LAMBDA=2.71505E-2 RD=1.20869E1 RS=1.20869E1 CGS=2.00000p CGD=2.00000p PB=1.24659 IS=3.64346E-16 XTI=3 AF=1 FC=0.5 N=1 NR=2 MFG=PHILIPS)
.MODEL BF246A NJF(VTO=-5.3298 BETA=2.86527m BETATCE=-0.5 LAMBDA=6.19323E-2 RD=1.62278 RS=1.62278 CGS=1.05000E-11 CGD=1.30000E-11 PB=7.98217E-1 IS=1.18582f XTI=3 AF=1 FC=0.5 N=1 NR=2 MFG=PHILIPS)
.MODEL BF256A NJF(VTO=-2.1333 BETA=1.06491m BETATCE=-0.5 LAMBDA=1.68673E-2 RD=1.41231E1 RS=1.41231E1 CGS=2.10000p CGD=2.30000p PB=7.73895E-1 IS=3.50865E-16 XTI=3 AF=1 FC=0.5 N=1 NR=2 MFG=PHILIPS)
.MODEL BF256B NJF(VTO=-2.3085 BETA=1.09045m BETATCE=-0.5 LAMBDA=2.31754E-2 RD=7.77648 RS=7.77648 CGS=2.00000p CGD=2.20000p PB=9.91494E-1 IS=2.59121E-16 XTI=3 AF=1 FC=0.5 N=1 NR=2 MFG=PHILIPS)
.MODEL BF410A NJF(VTO=-8.8094E-1 BETA=2.01845m BETATCE=-0.5 LAMBDA=1.50475E-2 RD=3.57223 RS=3.57223 CGS=2.80000p CGD=4.27000p PB=6.18391E-1 IS=1.05515E-13 XTI=3 AF=1 FC=0.5 N=1 NR=2 MFG=PHILIPS)
.MODEL BF410B NJF(VTO=-1.9058 BETA=1.54719m BETATCE=-0.5 LAMBDA=1.72995E-2 RD=3.06677 RS=3.06677 CGS=4.18000p CGD=2.37000p PB=7.16850E-1 IS=7.02360E-14 XTI=3 AF=1 FC=0.5 N=1 NR=2 MFG=PHILIPS)
.MODEL BF410C NJF(VTO=-2.3973 BETA=1.31099m BETATCE=-0.5 LAMBDA=1.70958E-2 RD=3.03493 RS=3.03493 CGS=3.42000p CGD=2.68000p PB=8.25674E-1 IS=5.66111E-14 XTI=3 AF=1 FC=0.5 N=1 NR=2 MFG=PHILIPS)
.MODEL BF410D NJF(VTO=-3.1715 BETA=1.22441m BETATCE=-0.5 LAMBDA=1.98434E-2 RD=2.61448 RS=2.61448 CGS=5.40000p CGD=4.08000p PB=8.59053E-1 IS=3.88189E-14 XTI=3 AF=1 FC=0.5 N=1 NR=2 MFG=PHILIPS)
.model BF545A/PLP NJF( VTO=-1.7372 BETA=1.16621E-003 LAMBDA=1.77211E-002 RD=9.01678E+000 RS=9.01678 IS=2.91797E-016 CGS=2.2p CGD=2.2p PB=7.80988E-001 FC=0.5 MFG=PHILIPS)
.model BF545B/PLP NJF( VTO=-2.3085 BETA=1.09045E-003 LAMBDA=2.31754E-002 RD=7.77648E+000 RS=7.77648 IS=2.59121E-016 CGS=2p CGD=2.2p PB=9.91494E-001 FC=0.5 MFG=PHILIPS)
.model BF545C/PLP NJF( VTO=-5.0014 BETA=5.43157E-004 LAMBDA=2.71505E-002 RD=1.20869E+001 RS=1.20869E+001 IS=3.64346E-016 CGS=2p CGD=2p PB=1.24659E+000 FC=0.5 MFG=PHILIPS)
.MODEL BF851A NJF(VTO=-0.5111 BETA=0.01519 BETATCE=-0.5 LAMBDA=0.03593 RD=4.164 RS=4.164 CGS=6.299p CGD=6.299p PB=0.6917 IS=4.102E-16 XTI=3 AF=1 FC=0.5 N=1 NR=2 MFG=PHILIPS)
.MODEL BF851B NJF(VTO=-0.6391 BETA=0.01393 BETATCE=-0.5 LAMBDA=0.04702 RD=3.577 RS=3.577 CGS=6.025p CGD=6.025p PB=0.7072 IS=3.769E-16 XTI=3 AF=1 FC=0.5 N=1 NR=2 MFG=PHILIPS)
.MODEL BF851C NJF(VTO=-1.145 BETA=0.01522 BETATCE=-0.5 LAMBDA=0.04494 RD=15.2 RS=15.2 CGS=6.581p CGD=6.581p PB=0.7395 IS=4.157E-16 XTI=3 AF=1 FC=0.5 N=1 NR=2 MFG=PHILIPS)
.model BF556B NJF(NJF VTO=-2.3085 BETA=1.09045m LAMBDA=2.31754E-002 RD=7.77648 RS=7.77648 IS=2.59121E-016 CGS=2p CGD=2.2p PB=0.991494 FC=0.5 mfg=NXP)
.MODEL BF861A NJF(VTO=-0.5111 BETA=0.01519 BETATCE=-0.5 LAMBDA=0.03593 RD=4.164 RS=4.164 CGS=6.299p CGD=6.299p PB=0.6917 IS=4.102E-16 XTI=3 AF=1 FC=0.5 N=1 NR=2 MFG=PHILIPS)
.MODEL BF861B NJF(VTO=-0.6391 BETA=0.01393 BETATCE=-0.5 LAMBDA=0.04702 RD=3.577 RS=3.577 CGS=6.025p CGD=6.025p PB=0.7072 IS=3.769E-16 XTI=3 AF=1 FC=0.5 N=1 NR=2 MFG=PHILIPS)
.model bf862 njf(beta=47.800m rd=.8 rs=7.5 lambda=37.3m vto=-.57093 is=424.6p cgd=7.4p pb=.5 fc=.5 cgs=8.29p kf=87.5e-18 af=1 alpha=-1m nr=2 isr=2.995p vtotc=-2m betatce=-.5 xti=3 vk=59.97 m=.6015 MFG=PHILIPS
.MODEL BF861C NJF(VTO=-1.145 BETA=0.01522 BETATCE=-0.5 LAMBDA=0.04494 RD=15.2 RS=15.2 CGS=6.581p CGD=6.581p PB=0.7395 IS=4.157E-16 XTI=3 AF=1 FC=0.5 N=1 NR=2 MFG=PHILIPS)
.MODEL BFR30 NJF(VTO=-2.0850 BETA=1.24635m BETATCE=-0.5 LAMBDA=2.46045E-2 RD=1.68159E1 RS=1.68159E1 CGS=2.25000p CGD=2.25000p PB=9.32203E-1 IS=2.16894E-16 XTI=3 AF=1 FC=0.5 N=1 NR=2 MFG=PHILIPS)
.MODEL BFR31 NJF(VTO=-1.0686 BETA=1.73071m BETATCE=-0.5 LAMBDA=2.29157E-2 RD=9.05115 RS=9.05115 CGS=2.20000p CGD=2.20000p PB=9.78591E-1 IS=1.70538E-16 XTI=3 AF=1 FC=0.5 N=1 NR=2 MFG=PHILIPS)
.MODEL BFT46 NJF(VTO=-6.4188E-1 BETA=1.86172m BETATCE=-0.5 LAMBDA=2.16604E-2 RD=9.23044 RS=9.23044 CGS=2.20000p CGD=2.20000p PB=8.27713E-1 IS=1.68833E-16 XTI=3 AF=1 FC=0.5 N=1 NR=2 MFG=PHILIPS)
.MODEL BFU308 NJF(VTO=-3.2130 BETA=3.33257m BETATCE=-0.5 LAMBDA=2.34410E-2 RD=1.50212 RS=1.50212 CGS=7.60000p CGD=6.70000p PB=7.76379E-1 IS=3.82746E-16 XTI=3 AF=1 FC=0.5 N=1 NR=2 MFG=PHILIPS)
.MODEL BFU309 NJF(VTO=-2.3973 BETA=3.81468m BETATCE=-0.5 LAMBDA=3.80761E-2 RD=2.33008 RS=2.33008 CGS=7.00000p CGD=6.20000p PB=6.83767E-1 IS=3.02702E-16 XTI=3 AF=1 FC=0.5 N=1 NR=2 MFG=PHILIPS)
.MODEL BFU310 NJF(VTO=-3.8366 BETA=2.88371m BETATCE=-0.5 LAMBDA=2.00998E-2 RD=1.53610 RS=1.53610 CGS=7.90000p CGD=6.70000p PB=7.58274E-1 IS=4.18900E-16 XTI=3 AF=1 FC=0.5 N=1 NR=2 MFG=PHILIPS)
.MODEL BFW10 NJF(VTO=-2.3085 BETA=1.09045m BETATCE=-0.5 LAMBDA=2.31754E-2 RD=7.77648 RS=7.77648 CGS=2.00000p CGD=2.20000p PB=9.91494E-1 IS=2.59121E-16 XTI=3 AF=1 FC=0.5 N=1 NR=2 MFG=PHILIPS)
.MODEL BFW11 NJF(VTO=-2.0850 BETA=1.24635m BETATCE=-0.5 LAMBDA=2.46045E-2 RD=1.68159E1 RS=1.68159E1 CGS=2.25000p CGD=2.25000p PB=9.32203E-1 IS=2.16894E-16 XTI=3 AF=1 FC=0.5 N=1 NR=2 MFG=PHILIPS)
.MODEL BFW12 NJF(VTO=-1.0686 BETA=1.73071m BETATCE=-0.5 LAMBDA=2.29157E-2 RD=9.05115 RS=9.05115 CGS=2.20000p CGD=2.20000p PB=9.78591E-1 IS=1.70538E-16 XTI=3 AF=1 FC=0.5 N=1 NR=2 MFG=PHILIPS)
.MODEL BFW13 NJF(VTO=-6.4188E-1 BETA=1.86172m BETATCE=-0.5 LAMBDA=2.16604E-2 RD=9.23044 RS=9.23044 CGS=2.20000p CGD=2.20000p PB=8.27713E-1 IS=1.68833E-16 XTI=3 AF=1 FC=0.5 N=1 NR=2 MFG=PHILIPS)
.MODEL BSR56 NJF(VTO=-5.3298 BETA=2.86527m BETATCE=-0.5 LAMBDA=6.19323E-2 RD=1.62278 RS=1.62278 CGS=1.05000E-11 CGD=1.30000E-11 PB=7.98217E-1 IS=1.18582f XTI=3 AF=1 FC=0.5 N=1 NR=2 MFG=PHILIPS)
.MODEL BSR57 NJF(VTO=-3.1621 BETA=5.01519m BETATCE=-0.5 LAMBDA=2.40112E-2 RD=1.48485 RS=1.48485 CGS=1.05000E-11 CGD=1.40000E-11 PB=5.68050E-1 IS=9.11151E-16 XTI=3 AF=1 FC=0.5 N=1 NR=2 MFG=PHILIPS)
.MODEL BSR58 NJF(VTO=-2.4397 BETA=6.09357m BETATCE=-0.5 LAMBDA=5.26244E-2 RD=1.26608 RS=1.26608 CGS=1.05000E-11 CGD=1.10000E-11 PB=6.06848E-1 IS=9.89866E-16 XTI=3 AF=1 FC=0.5 N=1 NR=2 MFG=PHILIPS)
.MODEL BSV78 NJF(VTO=-5.3298 BETA=2.86527m BETATCE=-0.5 LAMBDA=6.19323E-2 RD=1.62278 RS=1.62278 CGS=1.05000E-11 CGD=1.30000E-11 PB=7.98217E-1 IS=1.18582f XTI=3 AF=1 FC=0.5 N=1 NR=2 MFG=PHILIPS)
.MODEL BSV79 NJF(VTO=-5.3638 BETA=3.25000m BETATCE=-0.5 LAMBDA=2.00000E-2 RD=2.42642 RS=2.42642 CGS=1.10000E-11 CGD=1.30000E-11 PB=7.01712E-1 IS=2.17605f XTI=3 AF=1 FC=0.5 N=1 NR=2 MFG=PHILIPS)
.MODEL J108 NJF(VTO=-5.4528 BETA=1.11439E-2 BETATCE=-0.5 LAMBDA=1.00000E-1 RD=3.11414 RS=3.11414 CGS=2.75000E-11 CGD=4.30000E-11 PB=5.90984E-1 IS=6.90136f XTI=3 AF=1 FC=0.5 N=1 NR=2 MFG=PHILIPS)
.MODEL J109 NJF(VTO=-5.5556 BETA=7.61416m BETATCE=-0.5 LAMBDA=1.41466E-1 RD=7.11991E-1 RS=7.11991E-1 CGS=2.70000E-11 CGD=4.60000E-11 PB=5.77536E-1 IS=1.77087f XTI=3 AF=1 FC=0.5 N=1 NR=2 MFG=PHILIPS)
.MODEL J110 NJF(VTO=-2.7780 BETA=1.20784E-2 BETATCE=-0.5 LAMBDA=1.74601E-1 RD=1.03157 RS=1.03157 CGS=2.80000E-11 CGD=3.80000E-11 PB=4.64070E-1 IS=4.42809f XTI=3 AF=1 FC=0.5 N=1 NR=2 MFG=PHILIPS)
.MODEL J111 NJF(VTO=-5.3638 BETA=3.25000m BETATCE=-0.5 LAMBDA=2.00000E-2 RD=2.42642 RS=2.42642 CGS=1.10000E-11 CGD=1.30000E-11 PB=7.01712E-1 IS=2.17605f XTI=3 AF=1 FC=0.5 N=1 NR=2 MFG=PHILIPS)
.MODEL J112 NJF(VTO=-2.3303 BETA=5.97264m BETATCE=-0.5 LAMBDA=2.31986E-2 RD=2.29075 RS=2.29075 CGS=1.05000E-11 CGD=1.20000E-11 PB=6.09944E-1 IS=8.87988E-16 XTI=3 AF=1 FC=0.5 N=1 NR=2 MFG=PHILIPS)
.MODEL J113 NJF(VTO=-1.2854 BETA=9.25964m BETATCE=-0.5 LAMBDA=3.03839E-2 RD=1.30170 RS=1.30170 CGS=1.05000E-11 CGD=1.20000E-11 PB=5.04493E-1 IS=9.86870E-16 XTI=3 AF=1 FC=0.5 N=1 NR=2 MFG=PHILIPS)
.MODEL J308 NJF(VTO=-3.2130 BETA=3.33257m BETATCE=-0.5 LAMBDA=2.34410E-2 RD=1.50212 RS=1.50212 CGS=7.10000p CGD=6.20000p PB=7.76379E-1 IS=3.82746E-16 XTI=3 AF=1 FC=0.5 N=1 NR=2 MFG=PHILIPS)
.MODEL J309 NJF(VTO=-2.3973 BETA=3.81468m BETATCE=-0.5 LAMBDA=3.80761E-2 RD=2.33008 RS=2.33008 CGS=6.50000p CGD=5.70000p PB=6.83767E-1 IS=3.02702E-16 XTI=3 AF=1 FC=0.5 N=1 NR=2 MFG=PHILIPS)
.MODEL J310 NJF(VTO=-3.8366 BETA=2.88371m BETATCE=-0.5 LAMBDA=2.00998E-2 RD=1.53610 RS=1.53610 CGS=7.40000p CGD=6.20000p PB=7.58274E-1 IS=4.18900E-16 XTI=3 AF=1 FC=0.5 N=1 NR=2 MFG=PHILIPS)
.MODEL J401 NJF(VTO=-1.316 BETA=1.577m BETATCE=-0.5 LAMBDA=10m RD=1 RS=1 CGS=6.044p CGD=5.6p PB=0.5 IS=19.73f XTI=3 AF=1 FC=0.5 N=1 NR=2 MFG=NSC)
.MODEL J410 NJF(VTO=-2 BETA=858.8u BETATCE=-0.5 LAMBDA=3.5m RD=1 RS=1 CGS=1p CGD=2p PB=1 IS=24.55f XTI=3 AF=1 FC=0.5 N=1 NR=2 MFG=NSC)
.MODEL NDF9406 NJF(VTO=-2.25 BETA=1.004m BETATCE=-0.5 LAMBDA=2m RD=1 RS=1 CGS=2.1p CGD=4.2p PB=1 IS=32.73f XTI=3 AF=1 FC=0.5 N=1 NR=2 MFG=NSC)
.MODEL NF5101 NJF(VTO=-0.7414 BETA=12.42m BETATCE=-0.5 LAMBDA=3m RD=1 RS=1 CGS=9.56p CGD=10.76p PB=1 IS=205.2f XTI=3 AF=1 FC=0.5 N=1 NR=2 MFG=NSC)
.MODEL NF5102 NJF(VTO=-1.001 BETA=14.28m BETATCE=-0.5 LAMBDA=8m RD=1 RS=1 CGS=9.56p CGD=10.76p PB=1 IS=205.2f XTI=3 AF=1 FC=0.5 N=1 NR=2 MFG=NSC)
.MODEL NF5103 NJF(VTO=-1.4 BETA=14.28m BETATCE=-0.5 LAMBDA=9m RD=1 RS=1 CGS=9.56p CGD=10.76p PB=1 IS=205.2f XTI=3 AF=1 FC=0.5 N=1 NR=2 MFG=NSC)
.MODEL NF5301 NJF(VTO=-1.887 BETA=62.04u BETATCE=-0.5 LAMBDA=15m RD=1 RS=1 CGS=4.93p CGD=3.94p PB=1 IS=5.261f XTI=3 AF=1 FC=0.5 N=1 NR=2 MFG=NSC)
.MODEL U257 NJF(VTO=-2.475 BETA=2.203m BETATCE=-0.5 LAMBDA=12m RD=1 RS=1 CGS=3.65p CGD=2.822p PB=1 IS=94.35f XTI=3 AF=1 FC=0.5 N=1 NR=2 MFG=NSC)
.MODEL U308 NJF(VTO=-2.852 BETA=4.337m BETATCE=-0.5 LAMBDA=16m RD=1 RS=1 CGS=5p CGD=5p PB=1 IS=193.9f XTI=3 AF=1 FC=0.5 N=1 NR=2 MFG=NSC)
.model U309 NJF(Beta=5.04m Betatce=-.5 Rd=1 Rs=1 Lambda=14m Vto=-2.026 Vtotc=-2.5m Is=193.9f Isr=1.881p N=1 Nr=2 Xti=3 Alpha=7.533u Vk=74.1 Cgd=5p M=.4647 Pb=1 Fc=.5 Cgs=5p Kf=69.01E-18 Af=1 mfg=Fairchild)
.MODEL U310 NJF(VTO=-3.324 BETA=3.688m BETATCE=-0.5 LAMBDA=17m RD=1 RS=1 CGS=7.4p CGD=7.4p PB=1 IS=193.9f XTI=3 AF=1 FC=0.5 N=1 NR=2 MFG=NSC)
.MODEL U401 NJF(VTO=-1.316 BETA=1.577m BETATCE=-0.5 LAMBDA=10m RD=1 RS=1 CGS=6.044p CGD=5.6p PB=0.5 IS=19.73f XTI=3 AF=1 FC=0.5 N=1 NR=2 MFG=NSC)
.MODEL U440 NJF(VTO=-2.839 BETA=1.978m BETATCE=-0.5 LAMBDA=30m RD=1 RS=1 CGS=2.47p CGD=2.11p PB=1 IS=36.18f XTI=3 AF=1 FC=0.5 N=1 NR=2 MFG=NSC)
.MODEL 2N2608 PJF(VTO=-2.45 BETA=423.6u BETATCE=-0.5 LAMBDA=15m RD=1 RS=1 CGS=8.37p CGD=6.7p PB=1 IS=222.4f XTI=3 AF=1 FC=0.5 N=1 NR=2 MFG=NSC)
.MODEL 2N4381 PJF(VTO=-1.8 BETA=2.658m BETATCE=-0.5 LAMBDA=15m RD=1 RS=1 CGS=8.26p CGD=6.61p PB=1 IS=222.4f XTI=3 AF=1 FC=0.5 N=1 NR=2 MFG=NSC)
.MODEL 2N5018 PJF(VTO=-4.15 BETA=772.5u BETATCE=-0.5 LAMBDA=40m RD=1 RS=1 CGS=9p CGD=6.5p PB=1 IS=461.5f XTI=3 AF=1 FC=0.5 N=1 NR=2 MFG=NSC)
.MODEL 2N5019 PJF(VTO=-2.229 BETA=1.775m BETATCE=-0.5 LAMBDA=24m RD=1 RS=1 CGS=9p CGD=6.5p PB=1 IS=461.5f XTI=3 AF=1 FC=0.5 N=1 NR=2 MFG=NSC)
.MODEL 2N5020 PJF(VTO=-0.8406 BETA=1.004m BETATCE=-0.5 LAMBDA=10m RD=1 RS=1 CGS=10.68p CGD=8.55p PB=1 IS=222.4f XTI=3 AF=1 FC=0.5 N=1 NR=2 MFG=NSC)
.MODEL 2N5021 PJF(VTO=-0.9996 BETA=2.658m BETATCE=-0.5 LAMBDA=12m RD=1 RS=1 CGS=10.68p CGD=8.55p PB=1 IS=222.4f XTI=3 AF=1 FC=0.5 N=1 NR=2 MFG=NSC)
.model 2N5114 PJF(Beta=510.2u Betatce=-.5 Rd=1 Rs=1 Lambda=40m Vto=-8.095 Vtotc=-2.5m Is=461.5f Isr=4.402p N=1 Nr=2 Xti=3 Alpha=32.54u Vk=393.2 Cgd=6.5p M=.2789 Pb=1 Fc=.5 Cgs=9p Kf=32.96E-18 Af=1 mfg=Fairchild)
.MODEL 2N5116 PJF(VTO=-2.373 BETA=1.71m BETATCE=-0.5 LAMBDA=25m RD=1 RS=1 CGS=9p CGD=6.5p PB=1 IS=461.5f XTI=3 AF=1 FC=0.5 N=1 NR=2 MFG=NSC)
.model 2N5460 PJF(Is=1.5p Alpha=1e-4 Vk=300 Vto=-3.4 Vtotc=-3m Beta=1.0m Lambda=10m Betatce=-.5 Rd=10 Rs=10 Cgs=5p Cgd=5p Kf=3e-17 mfg=Siliconix)
.model 2N5461 PJF(Is=1.5p Alpha=1e-4 Vk=300 Vto=-4.3 Vtotc=-3m Beta=1.5m Lambda=10m Betatce=-.5 Rd=10 Rs=10 Cgs=5p Cgd=5p Kf=3e-17 mfg=Siliconix)
.model 2N5462 PJF(Is=1.5p Alpha=1e-4 Vk=300 Vto=-5.4 Vtotc=-3m Beta=2.0m Lambda=10m Betatce=-.5 Rd=10 Rs=10 Cgs=5p Cgd=5p Kf=3e-17 mfg=Siliconix)
.MODEL J174 PJF(VTO=-7.1507 BETA=1.24461m BETATCE=-0.5 LAMBDA=2.01968E-2 RD=3.95403 RS=3.95403 CGS=1.58000E-11 CGD=1.88000E-11 PB=3.72072E-1 IS=9.72750E-16 XTI=3 AF=1 FC=0.5 N=1 NR=2 MFG=PHILIPS)
.MODEL J175 PJF(VTO=-3.6320 BETA=2.84523m BETATCE=-0.5 LAMBDA=2.00000E-2 RD=1.17482E1 RS=1.17482E1 CGS=1.57000E-11 CGD=1.70000E-11 PB=3.19450E-1 IS=7.74158E-16 XTI=3 AF=1 FC=0.5 N=1 NR=2 MFG=PHILIPS)
.MODEL J176 PJF(VTO=-2.3000 BETA=2.89414m BETATCE=-0.5 LAMBDA=2.00000E-2 RD=1.02409 RS=1.02409 CGS=1.00000E-11 CGD=1.05000E-11 PB=7.05860E-1 IS=4.51393E-16 XTI=3 AF=1 FC=0.5 N=1 NR=2 MFG=PHILIPS)
.MODEL J177 PJF(VTO=-1.8000 BETA=3.37432m BETATCE=-0.5 LAMBDA=2.41676E-2 RD=1.45880 RS=1.45880 CGS=8.90000p CGD=1.02500E-11 PB=6.94243E-1 IS=7.27555E-16 XTI=3 AF=1 FC=0.5 N=1 NR=2 MFG=PHILIPS)
.MODEL QSK389BL NJF (VTO=-2.5 BETA=6M LAMBDA=1.2M RD=4.95 RS=4.45 IS=6.32F PB=1 FC=.5 CGS=71.2P CGD=18.9P)
.MODEL QSK389 NJF (VTO=-2 BETA=20M LAMBDA=600U RD=7 RS=6.3 IS=1.58F PB=1 FC=.5 CGS=19.5P CGD=5.5P)
.model MPF102 NJF(Beta=1.04m Betatce=-.5 Rd=1 Rs=1 Lambda=2m
.model MPF102A NJF(Beta=1.04m Betatce=-.5 Rd=1 Rs=1 Lambda=2m Vto=-3.41 Vtotc=-2.5m Is=33.57f Isr=322.4f N=1 Nr=2 Xti=3 Alpha=311.7 Vk=243.6 Cgd=1.6p M=.3622 Pb=1 Fc=.5 Cgs=2.414p Kf=11.73E-18 Af=1)
.model J310A NJF(Beta=3.384m Betatce=-.5 Rd=1 Rs=1 Lambda=17m Vto=-3.409 Vtotc=-2.5m Is=193.9f Isr=1.881p N=1 Nr=2 Xti=3 Alpha=7.533u Vk=74.1 Cgd=6.2p M=.4647 Pb=1 Fc=.5 Cgs=6.2p Kf=46.34E-18 Af=1)
.model J2N3819A NJF(Beta=1.304m Betatce=-.5 Rd=1 Rs=1 Lambda=2.25m Vto=-3 Vtotc=-2.5m Is=33.57f Isr=322.4f N=1 Nr=2 Xti=3 Alpha=311.7 Vk=243.6 Cgd=1.6p M=.3622 Pb=1 Fc=.5 Cgs=2.414p Kf=9.882E-18 Af=1)
.model MPF103 NJF(Beta=561.5u Betatce=-.5 Rd=1 Rs=1 Lambda=3.5m Vto=-1.947 Vtotc=-2.5m Is=181.3f Isr=1.747p N=1 Nr=2 Xti=3 Alpha=2.543u Vk=152.2 Cgd=4p M=.3114 Pb=.5 Fc=.5 Cgs=4.627p Kf=4.978E-18 Af=1)
.model MPF104 NJF(Beta=488.9u Betatce=-.5 Rd=1 Rs=1 Lambda=3.83m Vto=-2.882 Vtotc=-2.5m Is=181.3f Isr=1.747p N=1 Nr=2 Xti=3 Alpha=2.543u Vk=152.2 Cgd=4p M=.3114 Pb=.5 Fc=.5 Cgs=4.627p Kf=4.284E-18 Af=1)
.model MPF105 NJF(Beta=377.6u Betatce=-.5 Rd=1 Rs=1 Lambda=4.167m Vto=-4.473 Vtotc=-2.5m Is=181.3f Isr=1.747p N=1 Nr=2 Xti=3 Alpha=2.543u Vk=152.2 Cgd=4p M=.3114 Pb=.5 Fc=.5 Cgs=4.627p Kf=3.227E-18 Af=1)
.model MPF106 NJF(Beta=1.518m Betatce=-.5 Rd=1 Rs=1 Lambda=2.25m Vto=-2.21 Vtotc=-2.5m Is=33.57f Isr=322.4f N=1 Nr=2 Xti=3 Alpha=311.7u Vk=243.6 Cgd=1.6p M=.3622 Pb=1 Fc=.5 Cgs=2.414p Kf=11.73E-18 Af=1)
.model MPF107 NJF(Beta=821.6u Betatce=-.5 Rd=1 Rs=1 Lambda=8m Vto=-3.721 Vtotc=-2.5m Is=33.57f Isr=322.4f N=1 Nr=2 Xti=3 Alpha=311.7u Vk=243.6 Cgd=1.6p M=.3622 Pb=1 Fc=.5 Cgs=2.414p Kf=6.301E-18 Af=1)