***********************************************
*ELECTRONICS WORKBENCH MODEL FILE             * 
*MODELS GENERATED BY: A.MICHEAL/S.MOORE       *
*(c) 1996 INTERACTIVE IMAGE TECHNOLOGIES LTD. * 
*TORONTO, ONTARIO (416)977-5550.              *
***********************************************
.MODEL 16CTQ D (
+   IS =  3.646e-05
+   RS =  0.007951
+   CJO =  5.522e-10
+   VJ =  7.795
+   TT =  5e-09
+   M =  0.6505
+   BV =  100
+   N =  2
+   EG =  1.11
+   XTI =  3
+   KF =  0
+   AF =  1
+   FC =  0.5
+   IBV =  0.0001
+   TNOM =  27
)

.MODEL 1N6095 D (
+   IS =  0.0008597
+   RS =  0.004514
+   CJO =  5.268e-09
+   VJ =  0.3905
+   TT =  5e-09
+   M =  0.4786
+   BV =  100
+   N =  1.869
+   EG =  1.11
+   XTI =  3
+   KF =  0
+   AF =  1
+   FC =  0.5
+   IBV =  0.0001
+   TNOM =  27
)

.MODEL 1N6096 D (
+   IS =  0.0008597
+   RS =  0.004514
+   CJO =  5.268e-09
+   VJ =  0.3905
+   TT =  5e-09
+   M =  0.4786
+   BV =  100
+   N =  1.869
+   EG =  1.11
+   XTI =  3
+   KF =  0
+   AF =  1
+   FC =  0.5
+   IBV =  0.0001
+   TNOM =  27
)

.MODEL 1N6097 D (
+   IS =  4.784e-06
+   RS =  0.002376
+   CJO =  3.704e-09
+   VJ =  2.217
+   TT =  5e-09
+   M =  0.5222
+   BV =  100
+   N =  1.2
+   EG =  1.11
+   XTI =  3
+   KF =  0
+   AF =  1
+   FC =  0.5
+   IBV =  0.0001
+   TNOM =  27
)

.MODEL 1N6098 D (
+   IS =  4.784e-06
+   RS =  0.002376
+   CJO =  3.704e-09
+   VJ =  2.217
+   TT =  5e-09
+   M =  0.5222
+   BV =  100
+   N =  1.2
+   EG =  1.11
+   XTI =  3
+   KF =  0
+   AF =  1
+   FC =  0.5
+   IBV =  0.0001
+   TNOM =  27
)

.MODEL 200CNQ D (
+   IS =  0.0001005
+   RS =  0.0008979
+   CJO =  7.408e-09
+   VJ =  2.217
+   TT =  5e-09
+   M =  0.5222
+   BV =  100
+   N =  1.256
+   EG =  1.11
+   XTI =  3
+   KF =  0
+   AF =  1
+   FC =  0.5
+   IBV =  0.0001
+   TNOM =  27
)

.MODEL 201CNQ D (
+   IS =  2.114e-06
+   RS =  0.001166
+   CJO =  7.408e-09
+   VJ =  2.217
+   TT =  5e-09
+   M =  0.5222
+   BV =  100
+   N =  1.17
+   EG =  1.11
+   XTI =  3
+   KF =  0
+   AF =  1
+   FC =  0.5
+   IBV =  0.0001
+   TNOM =  27
)

.MODEL 203CNQ D (
+   IS =  0.0003495
+   RS =  0.00249
+   CJO =  2.808e-09
+   VJ =  10
+   TT =  5e-09
+   M =  0.7166
+   BV =  100
+   N =  2
+   EG =  1.11
+   XTI =  3
+   KF =  0
+   AF =  1
+   FC =  0.5
+   IBV =  0.0001
+   TNOM =  27
)

.MODEL 220CNQ030 D (
+   IS =  6.703e-06
+   RS =  0.0007398
+   CJO =  8.482e-09
+   VJ =  8.887
+   TT =  5e-09
+   M =  0.7755
+   BV =  100
+   N =  1
+   EG =  1.11
+   XTI =  3
+   KF =  0
+   AF =  1
+   FC =  0.5
+   IBV =  0.0001
+   TNOM =  27
)

.MODEL 224CNQ D (
+   IS =  3.352e-05
+   RS =  0.001403
+   CJO =  7.408e-09
+   VJ =  2.217
+   TT =  5e-09
+   M =  0.5222
+   BV =  100
+   N =  1
+   EG =  1.11
+   XTI =  3
+   KF =  0
+   AF =  1
+   FC =  0.5
+   IBV =  0.0001
+   TNOM =  27
)

.MODEL 225CNQ015 D (
+   IS =  0.001873
+   RS =  0.0007869
+   CJO =  1.312e-08
+   VJ =  0.3905
+   TT =  5e-09
+   M =  0.2997
+   BV =  100
+   N =  1.041
+   EG =  1.11
+   XTI =  3
+   KF =  0
+   AF =  1
+   FC =  0.5
+   IBV =  0.0001
+   TNOM =  27
)

.MODEL 240NQ D (
+   IS =  1.827e-05
+   RS =  0.0005609
+   CJO =  1.54e-08
+   VJ =  0.7483
+   TT =  5e-09
+   M =  0.4623
+   BV =  100
+   N =  1.06
+   EG =  1.11
+   XTI =  3
+   KF =  0
+   AF =  1
+   FC =  0.5
+   IBV =  0.0001
+   TNOM =  27
)

.MODEL 241NQ D (
+   IS =  1.827e-06
+   RS =  0.0008609
+   CJO =  1.54e-08
+   VJ =  0.7483
+   TT =  5e-09
+   M =  0.4623
+   BV =  100
+   N =  1.06
+   EG =  1.11
+   XTI =  3
+   KF =  0
+   AF =  1
+   FC =  0.5
+   IBV =  0.0001
+   TNOM =  27
)

.MODEL 303CNQ D (
+   IS =  0.0004039
+   RS =  0.00154
+   CJO =  2.639e-09
+   VJ =  0.9204
+   TT =  5e-09
+   M =  0.4701
+   BV =  100
+   N =  2
+   EG =  1.11
+   XTI =  3
+   KF =  0
+   AF =  1
+   FC =  0.5
+   IBV =  0.0001
+   TNOM =  27
)

.MODEL 30CPQ035 D (
+   IS =  9.48e-05
+   RS =  0.005813
+   CJO =  2.55e-09
+   VJ =  0.3905
+   TT =  5e-09
+   M =  0.4665
+   BV =  100
+   N =  1.66
+   EG =  1.11
+   XTI =  3
+   KF =  0
+   AF =  1
+   FC =  0.5
+   IBV =  0.0001
+   TNOM =  27
)

.MODEL 30CPQ040 D (
+   IS =  0.0002
+   RS =  0.005813
+   CJO =  2.55e-09
+   VJ =  0.3905
+   TT =  5e-09
+   M =  0.4665
+   BV =  100
+   N =  1.68
+   EG =  1.11
+   XTI =  3
+   KF =  0
+   AF =  1
+   FC =  0.5
+   IBV =  0.0001
+   TNOM =  27
)

.MODEL 30CPQ045 D (
+   IS =  0.0002
+   RS =  0.005813
+   CJO =  2.55e-09
+   VJ =  0.3905
+   TT =  5e-09
+   M =  0.4665
+   BV =  100
+   N =  1.68
+   EG =  1.11
+   XTI =  3
+   KF =  0
+   AF =  1
+   FC =  0.5
+   IBV =  0.0001
+   TNOM =  27
)

.MODEL 401CNQ D (
+   IS =  7.607e-07
+   RS =  0.0008691
+   CJO =  2.459e-08
+   VJ =  0.6766
+   TT =  5e-09
+   M =  0.4994
+   BV =  100
+   N =  1.016
+   EG =  1.11
+   XTI =  3
+   KF =  0
+   AF =  1
+   FC =  0.5
+   IBV =  0.0001
+   TNOM =  27
)

.MODEL 403CNQ D (
+   IS =  0.000236
+   RS =  0.00087
+   CJO =  9.757e-09
+   VJ =  1.404
+   TT =  5e-09
+   M =  0.51
+   BV =  100
+   N =  1.707
+   EG =  1.11
+   XTI =  3
+   KF =  0
+   AF =  1
+   FC =  0.5
+   IBV =  0.0001
+   TNOM =  27
)

.MODEL 444CNQ D (
+   IS =  7.607e-05
+   RS =  0.0006691
+   CJO =  2.459e-08
+   VJ =  0.6766
+   TT =  5e-09
+   M =  0.4994
+   BV =  100
+   N =  1.016
+   EG =  1.11
+   XTI =  3
+   KF =  0
+   AF =  1
+   FC =  0.5
+   IBV =  0.0001
+   TNOM =  27
)

.MODEL 60CNQ D (
+   IS =  1.461e-05
+   RS =  0.003403
+   CJO =  3.704e-09
+   VJ =  2.217
+   TT =  5e-09
+   M =  0.5222
+   BV =  100
+   N =  1.105
+   EG =  1.11
+   XTI =  3
+   KF =  0
+   AF =  1
+   FC =  0.5
+   IBV =  0.0001
+   TNOM =  27
)

.MODEL 61CNQ D (
+   IS =  4.784e-06
+   RS =  0.00316
+   CJO =  3.704e-09
+   VJ =  2.217
+   TT =  5e-09
+   M =  0.5222
+   BV =  100
+   N =  1.2
+   EG =  1.11
+   XTI =  3
+   KF =  0
+   AF =  1
+   FC =  0.5
+   IBV =  0.0001
+   TNOM =  27
)

.MODEL 81CNQ D (
+   IS =  3.634e-05
+   RS =  0.001995
+   CJO =  3.704e-09
+   VJ =  2.217
+   TT =  5e-09
+   M =  0.5222
+   BV =  100
+   N =  1.497
+   EG =  1.11
+   XTI =  3
+   KF =  0
+   AF =  1
+   FC =  0.5
+   IBV =  0.0001
+   TNOM =  27
)

.MODEL 82CNQ030 D (
+   IS =  7.318e-06
+   RS =  0.001197
+   CJO =  6.406e-09
+   VJ =  1.59
+   TT =  5e-09
+   M =  0.5336
+   BV =  100
+   N =  1.04
+   EG =  1.11
+   XTI =  3
+   KF =  0
+   AF =  1
+   FC =  0.5
+   IBV =  0.0001
+   TNOM =  27
)

.MODEL 83CNQ D (
+   IS =  0.0002835
+   RS =  0.00457
+   CJO =  4.327e-09
+   VJ =  0.3905
+   TT =  5e-09
+   M =  0.4887
+   BV =  100
+   N =  2
+   EG =  1.11
+   XTI =  3
+   KF =  0
+   AF =  1
+   FC =  0.5
+   IBV =  0.0001
+   TNOM =  27
)

.MODEL 84CNQ D (
+   IS =  5.801e-06
+   RS =  0.002556
+   CJO =  3.704e-09
+   VJ =  2.217
+   TT =  5e-09
+   M =  0.5222
+   BV =  100
+   N =  1
+   EG =  1.11
+   XTI =  3
+   KF =  0
+   AF =  1
+   FC =  0.5
+   IBV =  0.0001
+   TNOM =  27
)

.MODEL 85CNQ015 D (
+   IS =  0.0004086
+   RS =  0.001617
+   CJO =  8.274e-09
+   VJ =  0.3905
+   TT =  5e-09
+   M =  0.3865
+   BV =  100
+   N =  1
+   EG =  1.11
+   XTI =  3
+   KF =  0
+   AF =  1
+   FC =  0.5
+   IBV =  0.0001
+   TNOM =  27
)

.MODEL D10CTQ150 D (
+   IS =  1.785e-06
+   RS =  0.05387
+   CJO =  6.61e-10
+   VJ =  0.3905
+   TT =  5e-09
+   M =  0.4956
+   BV =  100
+   N =  2
+   EG =  1.11
+   XTI =  3
+   KF =  0
+   AF =  1
+   FC =  0.5
+   IBV =  0.0001
+   TNOM =  27
)

.MODEL D10MQ040 D (
+   IS =  0.000213
+   RS =  0.0679
+   CJO =  2.43e-10
+   VJ =  0.75
+   TT =  5e-09
+   M =  0.5692
+   BV =  100
+   N =  2
+   EG =  1.11
+   XTI =  3
+   KF =  0
+   AF =  1
+   FC =  0.5
+   IBV =  0.0001
+   TNOM =  27
)

.MODEL D10MQ060 D (
+   IS =  1.601e-05
+   RS =  0.1176
+   CJO =  1.549e-10
+   VJ =  0.75
+   TT =  5e-09
+   M =  0.5166
+   BV =  100
+   N =  2
+   EG =  1.11
+   XTI =  3
+   KF =  0
+   AF =  1
+   FC =  0.5
+   IBV =  0.0001
+   TNOM =  27
)

.MODEL D10MQ090 D (
+   IS =  2.921e-08
+   RS =  0.03767
+   CJO =  1.041e-10
+   VJ =  0.75
+   TT =  5e-09
+   M =  0.4687
+   BV =  100
+   N =  1.9
+   EG =  1.11
+   XTI =  3
+   KF =  0
+   AF =  1
+   FC =  0.5
+   IBV =  0.0001
+   TNOM =  27
)

.MODEL D10TQ D (
+   IS =  0.0002585
+   RS =  0.00581
+   CJO =  2.55e-09
+   VJ =  0.3905
+   TT =  5e-09
+   M =  0.4665
+   BV =  100
+   N =  2
+   EG =  1.11
+   XTI =  3
+   KF =  0
+   AF =  1
+   FC =  0.5
+   IBV =  0.0001
+   TNOM =  27
)

.MODEL D11DQ03 D (
+   IS =  1e-06
+   RS =  0.1596
+   CJO =  9.266e-11
+   VJ =  4.259
+   TT =  5e-09
+   M =  0.5596
+   BV =  100
+   N =  1
+   EG =  1.11
+   XTI =  3
+   KF =  0
+   AF =  1
+   FC =  0.5
+   IBV =  0.0001
+   TNOM =  27
)

.MODEL D11DQ04 D (
+   IS =  1e-06
+   RS =  0.1596
+   CJO =  9.266e-11
+   VJ =  4.259
+   TT =  5e-09
+   M =  0.5596
+   BV =  100
+   N =  1
+   EG =  1.11
+   XTI =  3
+   KF =  0
+   AF =  1
+   FC =  0.5
+   IBV =  0.0001
+   TNOM =  27
)

.MODEL D11DQ05 D (
+   IS =  2.15e-07
+   RS =  0.1757
+   CJO =  6.727e-10
+   VJ =  0.3905
+   TT =  5e-09
+   M =  0.7272
+   BV =  100
+   N =  1
+   EG =  1.11
+   XTI =  3
+   KF =  0
+   AF =  1
+   FC =  0.5
+   IBV =  0.0001
+   TNOM =  27
)

.MODEL D11DQ06 D (
+   IS =  3.415e-07
+   RS =  0.174
+   CJO =  6.727e-10
+   VJ =  0.3905
+   TT =  5e-09
+   M =  0.7272
+   BV =  100
+   N =  1
+   EG =  1.11
+   XTI =  3
+   KF =  0
+   AF =  1
+   FC =  0.5
+   IBV =  0.0001
+   TNOM =  27
)

.MODEL D11DQ09 D (
+   IS =  1.174e-07
+   RS =  0.05746
+   CJO =  8.239e-11
+   VJ =  0.8316
+   TT =  5e-09
+   M =  0.4395
+   BV =  100
+   N =  2
+   EG =  1.11
+   XTI =  3
+   KF =  0
+   AF =  1
+   FC =  0.5
+   IBV =  0.0001
+   TNOM =  27
)

.MODEL D11DQ10 D (
+   IS =  1.17e-07
+   RS =  0.05046
+   CJO =  8.239e-11
+   VJ =  0.8316
+   TT =  5e-09
+   M =  0.4395
+   BV =  100
+   N =  2
+   EG =  1.11
+   XTI =  3
+   KF =  0
+   AF =  1
+   FC =  0.5
+   IBV =  0.0001
+   TNOM =  27
)

.MODEL D120NQ D (
+   IS =  0.0001005
+   RS =  0.0008979
+   CJO =  7.408e-09
+   VJ =  2.217
+   TT =  5e-09
+   M =  0.5222
+   BV =  100
+   N =  1.256
+   EG =  1.11
+   XTI =  3
+   KF =  0
+   AF =  1
+   FC =  0.5
+   IBV =  0.0001
+   TNOM =  27
)

.MODEL D121NQ D (
+   IS =  7.114e-06
+   RS =  0.001166
+   CJO =  7.408e-09
+   VJ =  2.217
+   TT =  5e-09
+   M =  0.5222
+   BV =  100
+   N =  1.17
+   EG =  1.11
+   XTI =  3
+   KF =  0
+   AF =  1
+   FC =  0.5
+   IBV =  0.0001
+   TNOM =  27
)

.MODEL D122NQ030 D (
+   IS =  6.703e-07
+   RS =  0.0007398
+   CJO =  8.482e-09
+   VJ =  8.887
+   TT =  5e-09
+   M =  0.7755
+   BV =  100
+   N =  0.8139
+   EG =  1.11
+   XTI =  3
+   KF =  0
+   AF =  1
+   FC =  0.5
+   IBV =  0.0001
+   TNOM =  27
)

.MODEL D123NQ D (
+   IS =  0.007495
+   RS =  0.0007904
+   CJO =  2.808e-09
+   VJ =  10
+   TT =  5e-09
+   M =  0.7166
+   BV =  100
+   N =  3.149
+   EG =  1.11
+   XTI =  3
+   KF =  0
+   AF =  1
+   FC =  0.5
+   IBV =  0.0001
+   TNOM =  27
)

.MODEL D124NQ D (
+   IS =  3.352e-05
+   RS =  0.001403
+   CJO =  7.408e-09
+   VJ =  2.217
+   TT =  5e-09
+   M =  0.5222
+   BV =  100
+   N =  0.9329
+   EG =  1.11
+   XTI =  3
+   KF =  0
+   AF =  1
+   FC =  0.5
+   IBV =  0.0001
+   TNOM =  27
)

.MODEL D125NQ015 D (
+   IS =  0.001873
+   RS =  0.0007869
+   CJO =  1.312e-08
+   VJ =  0.3905
+   TT =  5e-09
+   M =  0.2997
+   BV =  100
+   N =  1.041
+   EG =  1.11
+   XTI =  3
+   KF =  0
+   AF =  1
+   FC =  0.5
+   IBV =  0.0001
+   TNOM =  27
)

.MODEL D12CTQ D (
+   IS =  1.014e-06
+   RS =  0.008611
+   CJO =  1.014e-09
+   VJ =  0.3905
+   TT =  5e-09
+   M =  0.4061
+   BV =  100
+   N =  1.342
+   EG =  1.11
+   XTI =  3
+   KF =  0
+   AF =  1
+   FC =  0.5
+   IBV =  0.0001
+   TNOM =  27
)

.MODEL D12TQ D (
+   IS =  8.508e-05
+   RS =  0.005813
+   CJO =  2.55e-09
+   VJ =  0.3905
+   TT =  5e-09
+   M =  0.4665
+   BV =  100
+   N =  1.68
+   EG =  1.11
+   XTI =  3
+   KF =  0
+   AF =  1
+   FC =  0.5
+   IBV =  0.0001
+   TNOM =  27
)

.MODEL D150CMQ D (
+   IS =  9.642e-05
+   RS =  0.001869
+   CJO =  3.704e-09
+   VJ =  2.217
+   TT =  5e-09
+   M =  0.5222
+   BV =  100
+   N =  1.414
+   EG =  1.11
+   XTI =  3
+   KF =  0
+   AF =  1
+   FC =  0.5
+   IBV =  0.0001
+   TNOM =  27
)

.MODEL D151CMQ D (
+   IS =  9.642e-05
+   RS =  0.001869
+   CJO =  3.704e-09
+   VJ =  2.217
+   TT =  5e-09
+   M =  0.5222
+   BV =  100
+   N =  1.414
+   EG =  1.11
+   XTI =  3
+   KF =  0
+   AF =  1
+   FC =  0.5
+   IBV =  0.0001
+   TNOM =  27
)

.MODEL D152CMQ030 D (
+   IS =  3.637e-05
+   RS =  0.001468
+   CJO =  7.234e-09
+   VJ =  0.8604
+   TT =  5e-09
+   M =  0.4588
+   BV =  100
+   N =  1.167
+   EG =  1.11
+   XTI =  3
+   KF =  0
+   AF =  1
+   FC =  0.5
+   IBV =  0.0001
+   TNOM =  27
)

.MODEL D153CMQ D (
+   IS =  0.03025
+   RS =  0.001204
+   CJO =  2.639e-09
+   VJ =  0.9204
+   TT =  5e-09
+   M =  0.4701
+   BV =  100
+   N =  4.37
+   EG =  1.11
+   XTI =  3
+   KF =  0
+   AF =  1
+   FC =  0.5
+   IBV =  0.0001
+   TNOM =  27
)

.MODEL D15CTQ D (
+   IS =  0.0562
+   RS =  0.008413
+   CJO =  1.014e-09
+   VJ =  0.3905
+   TT =  5e-09
+   M =  0.4061
+   BV =  100
+   N =  4.995
+   EG =  1.11
+   XTI =  3
+   KF =  0
+   AF =  1
+   FC =  0.5
+   IBV =  0.0001
+   TNOM =  27
)

.MODEL D160CMQ D (
+   IS =  9.642e-05
+   RS =  0.001869
+   CJO =  3.704e-09
+   VJ =  2.217
+   TT =  5e-09
+   M =  0.5222
+   BV =  100
+   N =  1.414
+   EG =  1.11
+   XTI =  3
+   KF =  0
+   AF =  1
+   FC =  0.5
+   IBV =  0.0001
+   TNOM =  27
)

.MODEL D161CMQ D (
+   IS =  9.642e-05
+   RS =  0.001869
+   CJO =  3.704e-09
+   VJ =  2.217
+   TT =  5e-09
+   M =  0.5222
+   BV =  100
+   N =  1.414
+   EG =  1.11
+   XTI =  3
+   KF =  0
+   AF =  1
+   FC =  0.5
+   IBV =  0.0001
+   TNOM =  27
)

.MODEL D162CMQ03 D (
+   IS =  1.018e-06
+   RS =  0.001434
+   CJO =  7.234e-09
+   VJ =  0.8604
+   TT =  5e-09
+   M =  0.4588
+   BV =  100
+   N =  0.8367
+   EG =  1.11
+   XTI =  3
+   KF =  0
+   AF =  1
+   FC =  0.5
+   IBV =  0.0001
+   TNOM =  27
)

.MODEL D163CMQ D (
+   IS =  0.03179
+   RS =  0.0009839
+   CJO =  2.639e-09
+   VJ =  0.9204
+   TT =  5e-09
+   M =  0.4701
+   BV =  100
+   N =  4.433
+   EG =  1.11
+   XTI =  3
+   KF =  0
+   AF =  1
+   FC =  0.5
+   IBV =  0.0001
+   TNOM =  27
)

.MODEL D180NQ D (
+   IS =  1.827e-05
+   RS =  0.0008609
+   CJO =  1.54e-08
+   VJ =  0.7483
+   TT =  5e-09
+   M =  0.4623
+   BV =  100
+   N =  1.06
+   EG =  1.11
+   XTI =  3
+   KF =  0
+   AF =  1
+   FC =  0.5
+   IBV =  0.0001
+   TNOM =  27
)

.MODEL D181NQ D (
+   IS =  4.852e-10
+   RS =  0.000796
+   CJO =  1.54e-08
+   VJ =  0.7483
+   TT =  5e-09
+   M =  0.4623
+   BV =  100
+   N =  0.7017
+   EG =  1.11
+   XTI =  3
+   KF =  0
+   AF =  1
+   FC =  0.5
+   IBV =  0.0001
+   TNOM =  27
)

.MODEL D182NQ030 D (
+   IS =  1.184e-06
+   RS =  0.0004882
+   CJO =  8.562e-09
+   VJ =  5.954
+   TT =  5e-09
+   M =  0.5832
+   BV =  100
+   N =  0.8486
+   EG =  1.11
+   XTI =  3
+   KF =  0
+   AF =  1
+   FC =  0.5
+   IBV =  0.0001
+   TNOM =  27
)

.MODEL D183NQ D (
+   IS =  0.007495
+   RS =  0.0007904
+   CJO =  2.808e-09
+   VJ =  10
+   TT =  5e-09
+   M =  0.7166
+   BV =  100
+   N =  3.149
+   EG =  1.11
+   XTI =  3
+   KF =  0
+   AF =  1
+   FC =  0.5
+   IBV =  0.0001
+   TNOM =  27
)

.MODEL D185NQ015 D (
+   IS =  0.001255
+   RS =  0.0005259
+   CJO =  2.393e-08
+   VJ =  0.3905
+   TT =  5e-09
+   M =  0.3329
+   BV =  100
+   N =  0.9806
+   EG =  1.11
+   XTI =  3
+   KF =  0
+   AF =  1
+   FC =  0.5
+   IBV =  0.0001
+   TNOM =  27
)

.MODEL D18TQ D (
+   IS =  4.597e-05
+   RS =  0.004228
+   CJO =  2.411e-09
+   VJ =  2.164
+   TT =  5e-09
+   M =  0.5829
+   BV =  100
+   N =  1.655
+   EG =  1.11
+   XTI =  3
+   KF =  0
+   AF =  1
+   FC =  0.5
+   IBV =  0.0001
+   TNOM =  27
)

.MODEL D19TQ015 D (
+   IS =  4.055e-06
+   RS =  0.004556
+   CJO =  7.365e-09
+   VJ =  0.3905
+   TT =  5e-09
+   M =  0.5376
+   BV =  100
+   N =  0.6521
+   EG =  1.11
+   XTI =  3
+   KF =  0
+   AF =  1
+   FC =  0.5
+   IBV =  0.0001
+   TNOM =  27
)

.MODEL D1N6391 D (
+   IS =  0.02512
+   RS =  0.001783
+   CJO =  5.909e-09
+   VJ =  0.3905
+   TT =  5e-09
+   M =  0.5225
+   BV =  100
+   N =  3.63
+   EG =  1.11
+   XTI =  3
+   KF =  0
+   AF =  1
+   FC =  0.5
+   IBV =  0.0001
+   TNOM =  27
)

.MODEL D1N6392 D (
+   IS =  0.0006059
+   RS =  0.001033
+   CJO =  3.704e-09
+   VJ =  2.217
+   TT =  5e-09
+   M =  0.5222
+   BV =  100
+   N =  2.082
+   EG =  1.11
+   XTI =  3
+   KF =  0
+   AF =  1
+   FC =  0.5
+   IBV =  0.0001
+   TNOM =  27
)

.MODEL D20CTQ D (
+   IS =  0.002585
+   RS =  0.003691
+   CJO =  2.55e-09
+   VJ =  0.3905
+   TT =  5e-09
+   M =  0.4665
+   BV =  100
+   N =  2.994
+   EG =  1.11
+   XTI =  3
+   KF =  0
+   AF =  1
+   FC =  0.5
+   IBV =  0.0001
+   TNOM =  27
)

.MODEL D20FQ D (
+   IS =  0.0001793
+   RS =  0.003081
+   CJO =  5.268e-09
+   VJ =  0.3905
+   TT =  5e-09
+   M =  0.4786
+   BV =  100
+   N =  1.454
+   EG =  1.11
+   XTI =  3
+   KF =  0
+   AF =  1
+   FC =  0.5
+   IBV =  0.0001
+   TNOM =  27
)

.MODEL D20TQ D (
+   IS =  4.09e-05
+   RS =  0.005659
+   CJO =  1.714e-09
+   VJ =  4.82
+   TT =  5e-09
+   M =  0.6229
+   BV =  100
+   N =  1.426
+   EG =  1.11
+   XTI =  3
+   KF =  0
+   AF =  1
+   FC =  0.5
+   IBV =  0.0001
+   TNOM =  27
)

.MODEL D21FQ D (
+   IS =  1.851e-05
+   RS =  0.003135
+   CJO =  5.268e-09
+   VJ =  0.3905
+   TT =  5e-09
+   M =  0.4786
+   BV =  100
+   N =  1.32
+   EG =  1.11
+   XTI =  3
+   KF =  0
+   AF =  1
+   FC =  0.5
+   IBV =  0.0001
+   TNOM =  27
)

.MODEL D242NQ030 D (
+   IS =  2.382e-05
+   RS =  0.0004462
+   CJO =  7.949e-08
+   VJ =  0.3905
+   TT =  5e-09
+   M =  0.6353
+   BV =  100
+   N =  0.979
+   EG =  1.11
+   XTI =  3
+   KF =  0
+   AF =  1
+   FC =  0.5
+   IBV =  0.0001
+   TNOM =  27
)

.MODEL D243NQ D (
+   IS =  0.000446
+   RS =  0.000759
+   CJO =  9.757e-09
+   VJ =  1.404
+   TT =  5e-09
+   M =  0.51
+   BV =  100
+   N =  1.75
+   EG =  1.11
+   XTI =  3
+   KF =  0
+   AF =  1
+   FC =  0.5
+   IBV =  0.0001
+   TNOM =  27
)

.MODEL D244NQ D (
+   IS =  7.607e-05
+   RS =  0.0006691
+   CJO =  2.459e-08
+   VJ =  0.6766
+   TT =  5e-09
+   M =  0.4994
+   BV =  100
+   N =  1.016
+   EG =  1.11
+   XTI =  3
+   KF =  0
+   AF =  1
+   FC =  0.5
+   IBV =  0.0001
+   TNOM =  27
)

.MODEL D245NQ015 D (
+   IS =  0.0006284
+   RS =  0.000415
+   CJO =  2.217e-08
+   VJ =  0.3905
+   TT =  5e-09
+   M =  0.2363
+   BV =  100
+   N =  0.8893
+   EG =  1.11
+   XTI =  3
+   KF =  0
+   AF =  1
+   FC =  0.5
+   IBV =  0.0001
+   TNOM =  27
)

.MODEL D25CTQ D (
+   IS =  8.508e-05
+   RS =  0.005813
+   CJO =  2.55e-09
+   VJ =  0.3905
+   TT =  5e-09
+   M =  0.4665
+   BV =  100
+   N =  1.68
+   EG =  1.11
+   XTI =  3
+   KF =  0
+   AF =  1
+   FC =  0.5
+   IBV =  0.0001
+   TNOM =  27
)

.MODEL D301 D (
+   IS =  9.301e-08
+   RS =  0.001145
+   CJO =  7.408e-09
+   VJ =  2.217
+   TT =  5e-09
+   M =  0.5222
+   BV =  100
+   N =  0.9286
+   EG =  1.11
+   XTI =  3
+   KF =  0
+   AF =  1
+   FC =  0.5
+   IBV =  0.0001
+   TNOM =  27
)

.MODEL D301CNQ D (
+   IS =  9.301e-08
+   RS =  0.001145
+   CJO =  7.408e-09
+   VJ =  2.217
+   TT =  5e-09
+   M =  0.5222
+   BV =  100
+   N =  0.9286
+   EG =  1.11
+   XTI =  3
+   KF =  0
+   AF =  1
+   FC =  0.5
+   IBV =  0.0001
+   TNOM =  27
)

.MODEL D30CPQ050 D (
+   IS =  0.006247
+   RS =  0.005803
+   CJO =  1.125e-09
+   VJ =  2.231
+   TT =  5e-09
+   M =  0.5342
+   BV =  100
+   N =  3.053
+   EG =  1.11
+   XTI =  3
+   KF =  0
+   AF =  1
+   FC =  0.5
+   IBV =  0.0001
+   TNOM =  27
)

.MODEL D30CPQ060 D (
+   IS =  0.006247
+   RS =  0.005803
+   CJO =  1.125e-09
+   VJ =  2.231
+   TT =  5e-09
+   M =  0.5342
+   BV =  100
+   N =  3.053
+   EG =  1.11
+   XTI =  3
+   KF =  0
+   AF =  1
+   FC =  0.5
+   IBV =  0.0001
+   TNOM =  27
)

.MODEL D30CPQ080 D (
+   IS =  0.02138
+   RS =  0.005137
+   CJO =  5.522e-10
+   VJ =  7.795
+   TT =  5e-09
+   M =  0.6505
+   BV =  100
+   N =  5
+   EG =  1.11
+   XTI =  3
+   KF =  0
+   AF =  1
+   FC =  0.5
+   IBV =  0.0001
+   TNOM =  27
)

.MODEL D30CPQ100 D (
+   IS =  0.02138
+   RS =  0.005137
+   CJO =  5.522e-10
+   VJ =  7.795
+   TT =  5e-09
+   M =  0.6505
+   BV =  100
+   N =  5
+   EG =  1.11
+   XTI =  3
+   KF =  0
+   AF =  1
+   FC =  0.5
+   IBV =  0.0001
+   TNOM =  27
)

.MODEL D30CPQ150 D (
+   IS =  0.01009
+   RS =  0.006234
+   CJO =  1.232e-09
+   VJ =  0.3905
+   TT =  5e-09
+   M =  0.5382
+   BV =  100
+   N =  4.897
+   EG =  1.11
+   XTI =  3
+   KF =  0
+   AF =  1
+   FC =  0.5
+   IBV =  0.0001
+   TNOM =  27
)

.MODEL D30CTQ035 D (
+   IS =  0.002585
+   RS =  0.003691
+   CJO =  2.55e-09
+   VJ =  0.3905
+   TT =  5e-09
+   M =  0.4665
+   BV =  100
+   N =  2.994
+   EG =  1.11
+   XTI =  3
+   KF =  0
+   AF =  1
+   FC =  0.5
+   IBV =  0.0001
+   TNOM =  27
)

.MODEL D30CTQ040 D (
+   IS =  0.002585
+   RS =  0.003691
+   CJO =  2.55e-09
+   VJ =  0.3905
+   TT =  5e-09
+   M =  0.4665
+   BV =  100
+   N =  2.994
+   EG =  1.11
+   XTI =  3
+   KF =  0
+   AF =  1
+   FC =  0.5
+   IBV =  0.0001
+   TNOM =  27
)

.MODEL D30CTQ045 D (
+   IS =  0.002585
+   RS =  0.003691
+   CJO =  2.55e-09
+   VJ =  0.3905
+   TT =  5e-09
+   M =  0.4665
+   BV =  100
+   N =  2.994
+   EG =  1.11
+   XTI =  3
+   KF =  0
+   AF =  1
+   FC =  0.5
+   IBV =  0.0001
+   TNOM =  27
)

.MODEL D30CTQ050 D (
+   IS =  0.006247
+   RS =  0.005803
+   CJO =  1.125e-09
+   VJ =  2.231
+   TT =  5e-09
+   M =  0.5342
+   BV =  100
+   N =  3.053
+   EG =  1.11
+   XTI =  3
+   KF =  0
+   AF =  1
+   FC =  0.5
+   IBV =  0.0001
+   TNOM =  27
)

.MODEL D30CTQ060 D (
+   IS =  0.006247
+   RS =  0.005803
+   CJO =  1.125e-09
+   VJ =  2.231
+   TT =  5e-09
+   M =  0.5342
+   BV =  100
+   N =  3.053
+   EG =  1.11
+   XTI =  3
+   KF =  0
+   AF =  1
+   FC =  0.5
+   IBV =  0.0001
+   TNOM =  27
)

.MODEL D30FQ D (
+   IS =  3.607e-05
+   RS =  0.002173
+   CJO =  5.268e-09
+   VJ =  0.3905
+   TT =  5e-09
+   M =  0.4786
+   BV =  100
+   N =  1.657
+   EG =  1.11
+   XTI =  3
+   KF =  0
+   AF =  1
+   FC =  0.5
+   IBV =  0.0001
+   TNOM =  27
)

.MODEL D30WQ03F D (
+   IS =  0.04378
+   RS =  0.06386
+   CJO =  2.056e-10
+   VJ =  0.75
+   TT =  5e-09
+   M =  0.354
+   BV =  100
+   N =  4.995
+   EG =  1.11
+   XTI =  3
+   KF =  0
+   AF =  1
+   FC =  0.5
+   IBV =  0.0001
+   TNOM =  27
)

.MODEL D30WQ04F D (
+   IS =  0.04378
+   RS =  0.06386
+   CJO =  2.056e-10
+   VJ =  0.75
+   TT =  5e-09
+   M =  0.354
+   BV =  100
+   N =  4.995
+   EG =  1.11
+   XTI =  3
+   KF =  0
+   AF =  1
+   FC =  0.5
+   IBV =  0.0001
+   TNOM =  27
)

.MODEL D30WQ05F D (
+   IS =  1e-20
+   RS =  0.12
+   CJO =  3.208e-10
+   VJ =  0.3905
+   TT =  5e-09
+   M =  0.4443
+   BV =  100
+   N =  0.3058
+   EG =  1.11
+   XTI =  3
+   KF =  0
+   AF =  1
+   FC =  0.5
+   IBV =  0.0001
+   TNOM =  27
)

.MODEL D30WQ06F D (
+   IS =  1e-20
+   RS =  0.12
+   CJO =  3.208e-10
+   VJ =  0.3905
+   TT =  5e-09
+   M =  0.4443
+   BV =  100
+   N =  0.3058
+   EG =  1.11
+   XTI =  3
+   KF =  0
+   AF =  1
+   FC =  0.5
+   IBV =  0.0001
+   TNOM =  27
)

.MODEL D30WQ09F D (
+   IS =  0.002944
+   RS =  0.009914
+   CJO =  3.013e-10
+   VJ =  0.3905
+   TT =  5e-09
+   M =  0.4206
+   BV =  100
+   N =  5
+   EG =  1.11
+   XTI =  3
+   KF =  0
+   AF =  1
+   FC =  0.5
+   IBV =  0.0001
+   TNOM =  27
)

.MODEL D30WQ10F D (
+   IS =  0.002943
+   RS =  0.009923
+   CJO =  1.805e-10
+   VJ =  0.3905
+   TT =  5e-09
+   M =  0.4196
+   BV =  100
+   N =  5
+   EG =  1.11
+   XTI =  3
+   KF =  0
+   AF =  1
+   FC =  0.5
+   IBV =  0.0001
+   TNOM =  27
)

.MODEL D31DQ03 D (
+   IS =  0.03522
+   RS =  0.02782
+   CJO =  7.439e-10
+   VJ =  0.3905
+   TT =  5e-09
+   M =  0.5012
+   BV =  100
+   N =  4.995
+   EG =  1.11
+   XTI =  3
+   KF =  0
+   AF =  1
+   FC =  0.5
+   IBV =  0.0001
+   TNOM =  27
)

.MODEL D31DQ04 D (
+   IS =  0.03522
+   RS =  0.02782
+   CJO =  7.439e-10
+   VJ =  0.3905
+   TT =  5e-09
+   M =  0.5012
+   BV =  100
+   N =  4.995
+   EG =  1.11
+   XTI =  3
+   KF =  0
+   AF =  1
+   FC =  0.5
+   IBV =  0.0001
+   TNOM =  27
)

.MODEL D31DQ05 D (
+   IS =  1e-20
+   RS =  0.0572
+   CJO =  4.589e-10
+   VJ =  0.3905
+   TT =  5e-09
+   M =  0.4265
+   BV =  100
+   N =  0.3251
+   EG =  1.11
+   XTI =  3
+   KF =  0
+   AF =  1
+   FC =  0.5
+   IBV =  0.0001
+   TNOM =  27
)

.MODEL D31DQ06 D (
+   IS =  1e-20
+   RS =  0.0572
+   CJO =  4.589e-10
+   VJ =  0.3905
+   TT =  5e-09
+   M =  0.4265
+   BV =  100
+   N =  0.3251
+   EG =  1.11
+   XTI =  3
+   KF =  0
+   AF =  1
+   FC =  0.5
+   IBV =  0.0001
+   TNOM =  27
)

.MODEL D31DQ09 D (
+   IS =  5.531e-06
+   RS =  0.02374
+   CJO =  3.656e-10
+   VJ =  0.3905
+   TT =  5e-09
+   M =  0.4245
+   BV =  100
+   N =  2.16
+   EG =  1.11
+   XTI =  3
+   KF =  0
+   AF =  1
+   FC =  0.5
+   IBV =  0.0001
+   TNOM =  27
)

.MODEL D31DQ10 D (
+   IS =  5.531e-06
+   RS =  0.02374
+   CJO =  3.656e-10
+   VJ =  0.3905
+   TT =  5e-09
+   M =  0.4245
+   BV =  100
+   N =  2.16
+   EG =  1.11
+   XTI =  3
+   KF =  0
+   AF =  1
+   FC =  0.5
+   IBV =  0.0001
+   TNOM =  27
)

.MODEL D32CTQ030 D (
+   IS =  1e-20
+   RS =  0.006156
+   CJO =  3.051e-09
+   VJ =  0.3905
+   TT =  5e-09
+   M =  0.4249
+   BV =  100
+   N =  0.2904
+   EG =  1.11
+   XTI =  3
+   KF =  0
+   AF =  1
+   FC =  0.5
+   IBV =  0.0001
+   TNOM =  27
)

.MODEL D400CNQ D (
+   IS =  7.584e-08
+   RS =  0.0007747
+   CJO =  2.459e-08
+   VJ =  0.6766
+   TT =  5e-09
+   M =  0.4994
+   BV =  100
+   N =  0.7057
+   EG =  1.11
+   XTI =  3
+   KF =  0
+   AF =  1
+   FC =  0.5
+   IBV =  0.0001
+   TNOM =  27
)

.MODEL D40CDQ D (
+   IS =  1.169e-05
+   RS =  0.004996
+   CJO =  2.411e-09
+   VJ =  2.164
+   TT =  5e-09
+   M =  0.5829
+   BV =  100
+   N =  1.441
+   EG =  1.11
+   XTI =  3
+   KF =  0
+   AF =  1
+   FC =  0.5
+   IBV =  0.0001
+   TNOM =  27
)

.MODEL D40CPQ035 D (
+   IS =  4.414e-05
+   RS =  0.004054
+   CJO =  2.077e-09
+   VJ =  9.99
+   TT =  5e-09
+   M =  0.8205
+   BV =  100
+   N =  1.234
+   EG =  1.11
+   XTI =  3
+   KF =  0
+   AF =  1
+   FC =  0.5
+   IBV =  0.0001
+   TNOM =  27
)

.MODEL D40CPQ040 D (
+   IS =  4.414e-05
+   RS =  0.004054
+   CJO =  2.077e-09
+   VJ =  9.99
+   TT =  5e-09
+   M =  0.8205
+   BV =  100
+   N =  1.234
+   EG =  1.11
+   XTI =  3
+   KF =  0
+   AF =  1
+   FC =  0.5
+   IBV =  0.0001
+   TNOM =  27
)

.MODEL D40CPQ045 D (
+   IS =  4.414e-05
+   RS =  0.004054
+   CJO =  2.077e-09
+   VJ =  9.99
+   TT =  5e-09
+   M =  0.8205
+   BV =  100
+   N =  1.234
+   EG =  1.11
+   XTI =  3
+   KF =  0
+   AF =  1
+   FC =  0.5
+   IBV =  0.0001
+   TNOM =  27
)

.MODEL D40CPQ050 D (
+   IS =  0.00504
+   RS =  0.004076
+   CJO =  1.723e-09
+   VJ =  6.341
+   TT =  5e-09
+   M =  0.6219
+   BV =  100
+   N =  2.5
+   EG =  1.11
+   XTI =  3
+   KF =  0
+   AF =  1
+   FC =  0.5
+   IBV =  0.0001
+   TNOM =  27
)

.MODEL D40CPQ060 D (
+   IS =  0.00504
+   RS =  0.004076
+   CJO =  1.723e-09
+   VJ =  6.341
+   TT =  5e-09
+   M =  0.6219
+   BV =  100
+   N =  2.5
+   EG =  1.11
+   XTI =  3
+   KF =  0
+   AF =  1
+   FC =  0.5
+   IBV =  0.0001
+   TNOM =  27
)

.MODEL D40CPQ080 D (
+   IS =  0.00515
+   RS =  0.00492
+   CJO =  1.527e-09
+   VJ =  0.3905
+   TT =  5e-09
+   M =  0.442
+   BV =  100
+   N =  3.352
+   EG =  1.11
+   XTI =  3
+   KF =  0
+   AF =  1
+   FC =  0.5
+   IBV =  0.0001
+   TNOM =  27
)

.MODEL D40CPQ100 D (
+   IS =  0.00515
+   RS =  0.00492
+   CJO =  1.527e-09
+   VJ =  0.3905
+   TT =  5e-09
+   M =  0.442
+   BV =  100
+   N =  3.352
+   EG =  1.11
+   XTI =  3
+   KF =  0
+   AF =  1
+   FC =  0.5
+   IBV =  0.0001
+   TNOM =  27
)

.MODEL D440CNQ030 D (
+   IS =  4.862e-05
+   RS =  0.0003929
+   CJO =  7.949e-08
+   VJ =  0.3905
+   TT =  5e-09
+   M =  0.6353
+   BV =  100
+   N =  1.05
+   EG =  1.11
+   XTI =  3
+   KF =  0
+   AF =  1
+   FC =  0.5
+   IBV =  0.0001
+   TNOM =  27
)

.MODEL D50HQ D (
+   IS =  3.301e-06
+   RS =  0.002556
+   CJO =  3.704e-09
+   VJ =  2.217
+   TT =  5e-09
+   M =  0.5222
+   BV =  100
+   N =  1.033
+   EG =  1.11
+   XTI =  3
+   KF =  0
+   AF =  1
+   FC =  0.5
+   IBV =  0.0001
+   TNOM =  27
)

.MODEL D50SQ D (
+   IS =  5.673e-05
+   RS =  0.006316
+   CJO =  5.522e-10
+   VJ =  7.795
+   TT =  5e-09
+   M =  0.6505
+   BV =  100
+   N =  2.066
+   EG =  1.11
+   XTI =  3
+   KF =  0
+   AF =  1
+   FC =  0.5
+   IBV =  0.0001
+   TNOM =  27
)

.MODEL D50WQ03F D (
+   IS =  0.04796
+   RS =  0.03054
+   CJO =  5.365e-10
+   VJ =  0.3905
+   TT =  5e-09
+   M =  0.4173
+   BV =  100
+   N =  4.995
+   EG =  1.11
+   XTI =  3
+   KF =  0
+   AF =  1
+   FC =  0.5
+   IBV =  0.0001
+   TNOM =  27
)

.MODEL D50WQ04F D (
+   IS =  0.04796
+   RS =  0.03054
+   CJO =  5.365e-10
+   VJ =  0.3905
+   TT =  5e-09
+   M =  0.4173
+   BV =  100
+   N =  4.995
+   EG =  1.11
+   XTI =  3
+   KF =  0
+   AF =  1
+   FC =  0.5
+   IBV =  0.0001
+   TNOM =  27
)

.MODEL D50WQ05F D (
+   IS =  1e-20
+   RS =  0.06938
+   CJO =  2.539e-10
+   VJ =  2.433
+   TT =  5e-09
+   M =  0.4714
+   BV =  100
+   N =  0.3178
+   EG =  1.11
+   XTI =  3
+   KF =  0
+   AF =  1
+   FC =  0.5
+   IBV =  0.0001
+   TNOM =  27
)

.MODEL D50WQ06F D (
+   IS =  1e-20
+   RS =  0.06938
+   CJO =  2.539e-10
+   VJ =  2.433
+   TT =  5e-09
+   M =  0.4714
+   BV =  100
+   N =  0.3178
+   EG =  1.11
+   XTI =  3
+   KF =  0
+   AF =  1
+   FC =  0.5
+   IBV =  0.0001
+   TNOM =  27
)

.MODEL D50WQ09F D (
+   IS =  0.0005653
+   RS =  0.01543
+   CJO =  3.014e-10
+   VJ =  0.3905
+   TT =  5e-09
+   M =  0.4206
+   BV =  100
+   N =  3.659
+   EG =  1.11
+   XTI =  3
+   KF =  0
+   AF =  1
+   FC =  0.5