***********************************************
*ELECTRONICS WORKBENCH MODEL FILE             * 
*MODELS GENERATED BY: R.TALOS                 *
*(c) 1996 INTERACTIVE IMAGE TECHNOLOGIES LTD. * 
*TORONTO, ONTARIO (416)977-5550.              *
***********************************************
*BeginSpec
*JV: Vbe=.75 Vce=.3 Ib=5.000E-3 Ib%=10
*OA: (1.000E-3,20.00E-6) Vce=10
*FB: (10.00E-3,200) Vce=1
*VV: (500.0E-6,.1) (5.000E-3,70.00E-3) (.2,.3) (.3,.5) Ic/Ib=10
*CB: (5,4.000E-12)
*EB: (.5,8.000E-12)
*ST: Ic/Ib=10
*GB: (10.00E-3,100.0E6) Vce=20
*EndSpec

*BeginTrace
*JV: 0,1,100.0E-6,.1,1,3,0,0,-1 (27)
*OA: 1,1,100.0E-6,.1,1,3,0,0,-1 (27)
*FB: 0,1,100.0E-6,.1,1,3,0,0,-1 (27)
*VV: 0,1,100.0E-6,.1,1,3,0,0,-1 (27)
*CB: 0,1,.1,100,1,3,0,0,-1 (27)
*EB: 0,1,.1,10,1,3,0,0,-1 (27)
*ST: 0,1,100.0E-6,.1,1,3,0,0,-1 (27)
*GB: 0,1,100.0E-6,.1,1,3,0,0,-1 (27)
*EndTrace

*BeginParam
*IS=13.895E-12 (10.000E-21,1.0000E-6,0)
*BF=200 (1,1.5000E3,0)
*NF=1 (.8,1.2000,0)
*VAF=40.700 (0,1.0000E3,0)
*IKF=10.000E-3 (10.000E-3,20,0)
*ISE=0 (0,1,0)
*NE=1.5000 (1,2,0)
*BR=46.751 (.1,500,0)
*NR=1 (.1,5,0)
*VAR=100 (0,1.0000E3,0)
*IKR=19.940 (10.000E-3,20,0)
*ISC=18.957E-9 (0,1,0)
*NC=1.7537 (1,3,0)
*NK=.5 (.1,5,0)
*RE=0 (0,100.00E3,0)
*RB=0 (0,100.00E3,0)
*RC=89.574E-3 (0,100.00E3,0)
*CJE=9.4850E-12 (0,1,0)
*VJE=.75 (.35,1.5000,0)
*MJE=.33333 (.1,1,0)
*CJC=7.8873E-12 (0,1,0)
*VJC=.75 (.35,1.5000,0)
*MJC=.33333 (.1,1,0)
*FC=.5 (.1,1.5000,0)
*TF=1.5299E-9 (0,1,0)
*XTF=10 (0,100.00E3,0)
*VTF=10 (0,100.00E3,0)
*ITF=1 (0,100.00E3,0)
*PTF=0 (0,360,0)
*TR=10.000E-9 (0,1,0)
*EG=1.1100 (.69,5,0)
*XTB=0 (0,100.00E3,0)
*XTI=3 (.1,100.00E3,0)
*EndParam

*DEVICE=Q2N4123,NPN

* Q2N4123 NPN model
* created using Parts release 6.3a on 09/13/96 at 21:09
* Parts is a MicroSim product.
.MODEL Q2N4123 NPN
+ IS=6.0897E-15
+ VAF=100
+ IKF=10.000E-3
+ BR=.1001
+ VAR=100
+ IKR=10.000E-3
+ ISC=6.0897E-15
+ CJE=9.4850E-12
+ MJE=.33333
+ CJC=7.8873E-12
+ MJC=.33333
+ TF=565.58E-12
+ XTF=10
+ VTF=10
+ ITF=1
+ TR=10.000E-9
*$
*BeginSpec
*JV: Vbe=-.95 Vce=-.4 Ib=-5.000E-3 Ib%=10
*OA: Vce=-10
*FB: (-2.000E-3,100) Vce=-1
*VV: (-50.00E-3,-.4) Ic/Ib=10
*CB: (-5,4.500E-12)
*EB: (-.5,10.00E-12)
*ST: Ic/Ib=10
*GB: (-10.00E-3,200.0E6) Vce=-20
*EndSpec

*BeginTrace
*JV: 0,1,-100.0E-6,-.1,1,3,0,0,-1 (27)
*OA: 1,1,-100.0E-6,-.1,1,3,0,0,-1 (27)
*FB: 0,1,-100.0E-6,-.1,1,3,0,0,-1 (27)
*VV: 0,1,-100.0E-6,-.1,1,3,0,0,-1 (27)
*CB: 0,1,-.1,-100,1,3,0,0,-1 (27)
*EB: 0,1,-.1,-10,1,3,0,0,-1 (27)
*ST: 0,1,-100.0E-6,-.1,1,3,0,0,-1 (27)
*GB: 0,1,-100.0E-6,-.1,1,3,0,0,-1 (27)
*EndTrace

*BeginParam
*IS=290.89E-15 (10.000E-21,1.0000E-6,0)
*BF=100 (1,1.5000E3,0)
*NF=1 (.8,1.2000,0)
*VAF=100 (0,1.0000E3,0)
*IKF=10.000E-3 (10.000E-3,20,0)
*ISE=0 (0,1,0)
*NE=1.5000 (1,2,0)
*BR=.1001 (.1,500,0)
*NR=1 (.1,5,0)
*VAR=100 (0,1.0000E3,0)
*IKR=10.000E-3 (10.000E-3,20,0)
*ISC=290.89E-15 (0,1,0)
*NC=2 (1,3,0)
*NK=.5 (.1,5,0)
*RE=0 (0,100.00E3,0)
*RB=0 (0,100.00E3,0)
*RC=0 (0,100.00E3,0)
*CJE=11.856E-12 (0,1,0)
*VJE=.75 (.35,1.5000,0)
*MJE=.33333 (.1,1,0)
*CJC=8.8732E-12 (0,1,0)
*VJC=.75 (.35,1.5000,0)
*MJC=.33333 (.1,1,0)
*FC=.5 (.1,1.5000,0)
*TF=713.31E-12 (0,1,0)
*XTF=10 (0,100.00E3,0)
*VTF=10 (0,100.00E3,0)
*ITF=1 (0,100.00E3,0)
*PTF=0 (0,360,0)
*TR=10.000E-9 (0,1,0)
*EG=1.1100 (.69,5,0)
*XTB=0 (0,100.00E3,0)
*XTI=3 (.1,100.00E3,0)
*EndParam


*DEVICE=Q2N3904,NPN

* Q2N3904 NPN model
* created using Parts release 6.3a on 09/13/96 at 20:27
* Parts is a MicroSim product.
.MODEL Q2N3904 NPN
+ IS=13.895E-12
+ BF=200
+ VAF=40.700
+ IKF=10.000E-3
+ BR=46.751
+ VAR=100
+ IKR=19.940
+ ISC=18.957E-9
+ NC=1.7537
+ RC=89.574E-3
+ CJE=9.4850E-12
+ MJE=.33333
+ CJC=7.8873E-12
+ MJC=.33333
+ TF=1.5299E-9
+ XTF=10
+ VTF=10
+ ITF=1
+ TR=10.000E-9
*$
*BeginSpec
*JV: Vbe=.95 Vce=.3 Ib=5.000E-3 Ib%=10
*OA: Vce=-10
*FB: (2.000E-3,100) Vce=1
*VV: (50.00E-3,.3) Ic/Ib=10
*CB: (5,4.000E-12)
*EB: (.5,8.000E-12)
*ST: Ic/Ib=10
*GB: (10.00E-3,250.0E6) Vce=20
*EndSpec

*BeginTrace
*JV: 0,1,100.0E-6,.1,1,3,0,0,-1 (27)
*OA: 1,1,100.0E-6,.1,1,3,0,0,-1 (27)
*FB: 0,1,100.0E-6,.1,1,3,0,0,-1 (27)
*VV: 0,1,100.0E-6,.1,1,3,0,0,-1 (27)
*CB: 0,1,.1,100,1,3,0,0,-1 (27)
*EB: 0,1,.1,10,1,3,0,0,-1 (27)
*ST: 0,1,100.0E-6,.1,1,3,0,0,-1 (27)
*GB: 0,1,100.0E-6,.1,1,3,0,0,-1 (27)
*EndTrace

*BeginParam
*IS=6.0897E-15 (10.000E-21,1.0000E-6,0)
*BF=100 (1,1.5000E3,0)
*NF=1 (.8,1.2000,0)
*VAF=100 (0,1.0000E3,0)
*IKF=10.000E-3 (10.000E-3,20,0)
*ISE=0 (0,1,0)
*NE=1.5000 (1,2,0)
*BR=.1001 (.1,500,0)
*NR=1 (.1,5,0)
*VAR=100 (0,1.0000E3,0)
*IKR=10.000E-3 (10.000E-3,20,0)
*ISC=6.0897E-15 (0,1,0)
*NC=2 (1,3,0)
*NK=.5 (.1,5,0)
*RE=0 (0,100.00E3,0)
*RB=0 (0,100.00E3,0)
*RC=0 (0,100.00E3,0)
*CJE=9.4850E-12 (0,1,0)
*VJE=.75 (.35,1.5000,0)
*MJE=.33333 (.1,1,0)
*CJC=7.8873E-12 (0,1,0)
*VJC=.75 (.35,1.5000,0)
*MJC=.33333 (.1,1,0)
*FC=.5 (.1,1.5000,0)
*TF=565.58E-12 (0,1,0)
*XTF=10 (0,100.00E3,0)
*VTF=10 (0,100.00E3,0)
*ITF=1 (0,100.00E3,0)
*PTF=0 (0,360,0)
*TR=10.000E-9 (0,1,0)
*EG=1.1100 (.69,5,0)
*XTB=0 (0,100.00E3,0)
*XTI=3 (.1,100.00E3,0)
*EndParam

*DEVICE=Q2N4123,NPN

* Q2N4123 NPN model
* created using Parts release 6.3a on 09/13/96 at 21:19
* Parts is a MicroSim product.
.MODEL Q2N4123 NPN
+ IS=6.0897E-15
+ VAF=100
+ IKF=10.000E-3
+ BR=.1001
+ VAR=100
+ IKR=10.000E-3
+ ISC=6.0897E-15
+ CJE=9.4850E-12
+ MJE=.33333
+ CJC=7.8873E-12
+ MJC=.33333
+ TF=565.58E-12
+ XTF=10
+ VTF=10
+ ITF=1
+ TR=10.000E-9
*$
*BeginSpec
*JV: Vbe=.95 Vce=.3 Ib=5.000E-3 Ib%=10
*OA: Vce=-10
*FB: (2.000E-3,240) Vce=1
*VV: (50.00E-3,.3) Ic/Ib=10
*CB: (5,4.000E-12)
*EB: (10,8.000E-12)
*ST: Ic/Ib=10
*GB: (2.000E-3,240.0E6) Vce=1
*EndSpec

*BeginTrace
*JV: 0,1,100.0E-6,.1,1,3,0,0,-1 (27)
*OA: 1,1,100.0E-6,.1,1,3,0,0,-1 (27)
*FB: 0,1,100.0E-6,.1,1,3,0,0,-1 (27)
*VV: 0,1,100.0E-6,.1,1,3,0,0,-1 (27)
*CB: 0,1,.1,100,1,3,0,0,-1 (27)
*EB: 0,1,.1,10,1,3,0,0,-1 (27)
*ST: 0,1,100.0E-6,.1,1,3,0,0,-1 (27)
*GB: 0,1,100.0E-6,.1,1,3,0,0,-1 (27)
*EndTrace

*BeginParam
*IS=6.0897E-15 (10.000E-21,1.0000E-6,0)
*BF=240 (1,1.5000E3,0)
*NF=1 (.8,1.2000,0)
*VAF=100 (0,1.0000E3,0)
*IKF=10.000E-3 (10.000E-3,20,0)
*ISE=0 (0,1,0)
*NE=1.5000 (1,2,0)
*BR=.1001 (.1,500,0)
*NR=1 (.1,5,0)
*VAR=100 (0,1.0000E3,0)
*IKR=10.000E-3 (10.000E-3,20,0)
*ISC=6.0897E-15 (0,1,0)
*NC=2 (1,3,0)
*NK=.5 (.1,5,0)
*RE=0 (0,100.00E3,0)
*RB=0 (0,100.00E3,0)
*RC=0 (0,100.00E3,0)
*CJE=19.433E-12 (0,1,0)
*VJE=.75 (.35,1.5000,0)
*MJE=.33333 (.1,1,0)
*CJC=7.8873E-12 (0,1,0)
*VJC=.75 (.35,1.5000,0)
*MJC=.33333 (.1,1,0)
*FC=.5 (.1,1.5000,0)
*TF=0 (0,1,0)
*XTF=10 (0,100.00E3,0)
*VTF=10 (0,100.00E3,0)
*ITF=1 (0,100.00E3,0)
*PTF=0 (0,360,0)
*TR=10.000E-9 (0,1,0)
*EG=1.1100 (.69,5,0)
*XTB=0 (0,100.00E3,0)
*XTI=3 (.1,100.00E3,0)
*EndParam

*DEVICE=Q2N4124,NPN

* Q2N4124 NPN model
* created using Parts release 6.3a on 09/13/96 at 21:24
* Parts is a MicroSim product.
.MODEL Q2N4124 NPN
+ IS=6.0897E-15
+ BF=240
+ VAF=100
+ IKF=10.000E-3
+ BR=.1001
+ VAR=100
+ IKR=10.000E-3
+ ISC=6.0897E-15
+ CJE=19.433E-12
+ MJE=.33333
+ CJC=7.8873E-12
+ MJC=.33333
+ XTF=10
+ VTF=10
+ ITF=1
+ TR=10.000E-9
*$
*BeginSpec
*JV: Vbe=1 Vce=.25 Ib=5.000E-3 Ib%=10
*OA: Vce=10
*FB: (10.00E-3,155) Vce=5
*VV: (50.00E-3,.25) Ic/Ib=10
*CB: (10,6.000E-12)
*EB: (.5,30.00E-12)
*ST: Ic/Ib=10
*GB: (10.00E-3,200.0E6) Vce=10
*EndSpec

*BeginTrace
*JV: 0,1,100.0E-6,.1,1,3,0,0,-1 (27)
*OA: 1,1,100.0E-6,.1,1,3,0,0,-1 (27)
*FB: 0,1,100.0E-6,.1,1,3,0,0,-1 (27)
*VV: 0,1,100.0E-6,.1,1,3,0,0,-1 (27)
*CB: 0,1,.1,100,1,3,0,0,-1 (27)
*EB: 0,1,.1,10,1,3,0,0,-1 (27)
*ST: 0,1,100.0E-6,.1,1,3,0,0,-1 (27)
*GB: 0,1,100.0E-6,.1,1,3,0,0,-1 (27)
*EndTrace

*BeginParam
*IS=127.49E-18 (10.000E-21,1.0000E-6,0)
*BF=155 (1,1.5000E3,0)
*NF=1 (.8,1.2000,0)
*VAF=100 (0,1.0000E3,0)
*IKF=10.000E-3 (10.000E-3,20,0)
*ISE=0 (0,1,0)
*NE=1.5000 (1,2,0)
*BR=.1001 (.1,500,0)
*NR=1 (.1,5,0)
*VAR=100 (0,1.0000E3,0)
*IKR=10.000E-3 (10.000E-3,20,0)
*ISC=1.0000E-15 (0,1,0)
*NC=2 (1,3,0)
*NK=.5 (.1,5,0)
*RE=0 (0,100.00E3,0)
*RB=0 (0,100.00E3,0)
*RC=0 (0,100.00E3,0)
*CJE=35.569E-12 (0,1,0)
*VJE=.75 (.35,1.5000,0)
*MJE=.33333 (.1,1,0)
*CJC=14.575E-12 (0,1,0)
*VJC=.75 (.35,1.5000,0)
*MJC=.33333 (.1,1,0)
*FC=.5 (.1,1.5000,0)
*TF=525.97E-12 (0,1,0)
*XTF=10 (0,100.00E3,0)
*VTF=10 (0,100.00E3,0)
*ITF=1 (0,100.00E3,0)
*PTF=0 (0,360,0)
*TR=10.000E-9 (0,1,0)
*EG=1.1100 (.69,5,0)
*XTB=0 (0,100.00E3,0)
*XTI=3 (.1,100.00E3,0)
*EndParam

*DEVICE=Q2N5550,NPN

* Q2N5550 NPN model
* created using Parts release 6.3a on 09/13/96 at 21:52
* Parts is a MicroSim product.
.MODEL Q2N5550 NPN
+ IS=127.49E-18
+ BF=155
+ VAF=100
+ IKF=10.000E-3
+ BR=.1001
+ VAR=100
+ IKR=10.000E-3
+ ISC=1.0000E-15
+ CJE=35.569E-12
+ MJE=.33333
+ CJC=14.575E-12
+ MJC=.33333
+ TF=525.97E-12
+ XTF=10
+ VTF=10
+ ITF=1
+ TR=10.000E-9
*$
*BeginSpec
*JV: Vbe=1 Vce=.2 Ib=5.000E-3 Ib%=10
*OA: Vce=10
*FB: (10.00E-3,165) Vce=5
*VV: (50.00E-3,.2) Ic/Ib=10
*CB: (10,6.000E-12)
*EB: (.5,20.00E-12)
*ST: Ic/Ib=10
*GB: (10.00E-3,200.0E6) Vce=10
*EndSpec

*BeginTrace
*JV: 0,1,100.0E-6,.1,1,3,0,0,-1 (27)
*OA: 1,1,100.0E-6,.1,1,3,0,0,-1 (27)
*FB: 0,1,100.0E-6,.1,1,3,0,0,-1 (27)
*VV: 0,1,100.0E-6,.1,1,3,0,0,-1 (27)
*CB: 0,1,.1,100,1,3,0,0,-1 (27)
*EB: 0,1,.1,10,1,3,0,0,-1 (27)
*ST: 0,1,100.0E-6,.1,1,3,0,0,-1 (27)
*GB: 0,1,100.0E-6,.1,1,3,0,0,-1 (27)
*EndTrace

*BeginParam
*IS=18.446E-18 (10.000E-21,1.0000E-6,0)
*BF=165 (1,1.5000E3,0)
*NF=1 (.8,1.2000,0)
*VAF=100 (0,1.0000E3,0)
*IKF=10.000E-3 (10.000E-3,20,0)
*ISE=0 (0,1,0)
*NE=1.5000 (1,2,0)
*BR=.1001 (.1,500,0)
*NR=1 (.1,5,0)
*VAR=100 (0,1.0000E3,0)
*IKR=10.000E-3 (10.000E-3,20,0)
*ISC=1.0000E-15 (0,1,0)
*NC=2 (1,3,0)
*NK=.5 (.1,5,0)
*RE=0 (0,100.00E3,0)
*RB=0 (0,100.00E3,0)
*RC=0 (0,100.00E3,0)
*CJE=23.713E-12 (0,1,0)
*VJE=.75 (.35,1.5000,0)
*MJE=.33333 (.1,1,0)
*CJC=14.575E-12 (0,1,0)
*VJC=.75 (.35,1.5000,0)
*MJC=.33333 (.1,1,0)
*FC=.5 (.1,1.5000,0)
*TF=601.19E-12 (0,1,0)
*XTF=10 (0,100.00E3,0)
*VTF=10 (0,100.00E3,0)
*ITF=1 (0,100.00E3,0)
*PTF=0 (0,360,0)
*TR=10.000E-9 (0,1,0)
*EG=1.1100 (.69,5,0)
*XTB=0 (0,100.00E3,0)
*XTI=3 (.1,100.00E3,0)
*EndParam

*DEVICE=Q2N5551,NPN

* Q2N5551 NPN model
* created using Parts release 6.3a on 09/13/96 at 22:00
* Parts is a MicroSim product.
.MODEL Q2N5551 NPN
+ IS=18.446E-18
+ BF=165
+ VAF=100
+ IKF=10.000E-3
+ BR=.1001
+ VAR=100
+ IKR=10.000E-3
+ ISC=1.0000E-15
+ CJE=23.713E-12
+ MJE=.33333
+ CJC=14.575E-12
+ MJC=.33333
+ TF=601.19E-12
+ XTF=10
+ VTF=10
+ ITF=1
+ TR=10.000E-9
*$
*BeginSpec
*JV: Vbe=1 Vce=.25 Ib=10.00E-3 Ib%=10
*OA: Vce=10
*FB: (2.000E-3,400) Vce=6
*VV: (.1,.25) Ic/Ib=10
*CB: (10,3.500E-12)
*EB:
*ST: Ic/Ib=10
*GB: (1.000E-3,80.00E6) Vce=10
*EndSpec

*BeginTrace
*JV: 0,1,100.0E-6,.1,1,3,0,0,-1 (27)
*OA: 1,1,100.0E-6,.1,1,3,0,0,-1 (27)
*FB: 0,1,100.0E-6,.1,1,3,0,0,-1 (27)
*VV: 0,1,100.0E-6,.1,1,3,0,0,-1 (27)
*CB: 0,1,.1,100,1,3,0,0,-1 (27)
*EB: 0,1,.1,10,1,3,0,0,-1 (27)
*ST: 0,1,100.0E-6,.1,1,3,0,0,-1 (27)
*GB: 0,1,100.0E-6,.1,1,3,0,0,-1 (27)
*EndTrace

*BeginParam
*IS=254.97E-18 (10.000E-21,1.0000E-6,0)
*BF=400 (1,1.5000E3,0)
*NF=1 (.8,1.2000,0)
*VAF=100 (0,1.0000E3,0)
*IKF=10.000E-3 (10.000E-3,20,0)
*ISE=0 (0,1,0)
*NE=1.5000 (1,2,0)
*BR=.1001 (.1,500,0)
*NR=1 (.1,5,0)
*VAR=100 (0,1.0000E3,0)
*IKR=10.000E-3 (10.000E-3,20,0)
*ISC=1.0000E-15 (0,1,0)
*NC=2 (1,3,0)
*NK=.5 (.1,5,0)
*RE=0 (0,100.00E3,0)
*RB=0 (0,100.00E3,0)
*RC=0 (0,100.00E3,0)
*CJE=2.0000E-12 (0,1,0)
*VJE=.75 (.35,1.5000,0)
*MJE=.33 (.1,1,0)
*CJC=8.5019E-12 (0,1,0)
*VJC=.75 (.35,1.5000,0)
*MJC=.33333 (.1,1,0)
*FC=.5 (.1,1.5000,0)
*TF=1.7946E-9 (0,1,0)
*XTF=10 (0,100.00E3,0)
*VTF=10 (0,100.00E3,0)
*ITF=1 (0,100.00E3,0)
*PTF=0 (0,360,0)
*TR=10.000E-9 (0,1,0)
*EG=1.1100 (.69,5,0)
*XTB=0 (0,100.00E3,0)
*XTI=3 (.1,100.00E3,0)
*EndParam

*DEVICE=Q2SC1815,NPN

* Q2SC1815 NPN model
* created using Parts release 6.3a on 09/13/96 at 22:17
* Parts is a MicroSim product.
.MODEL Q2SC1815 NPN
+ IS=254.97E-18
+ BF=400
+ VAF=100
+ IKF=10.000E-3
+ BR=.1001
+ VAR=100
+ IKR=10.000E-3
+ ISC=1.0000E-15
+ CJE=2.0000E-12
+ CJC=8.5019E-12
+ MJC=.33333
+ TF=1.7946E-9
+ XTF=10
+ VTF=10
+ ITF=1
+ TR=10.000E-9
*$
*BeginSpec
*JV: Vbe=.7 Vce=.25 Ib=10.00E-3 Ib%=10
*OA: Vce=10
*FB: (2.000E-3,385) Vce=6
*VV: (.1,.25) Ic/Ib=10
*CB: (10,3.500E-12)
*EB:
*ST: Ic/Ib=10
*GB: (1.000E-3,80.00E6) Vce=10
*EndSpec

*BeginTrace
*JV: 0,1,100.0E-6,.1,1,3,0,0,-1 (27)
*OA: 1,1,100.0E-6,.1,1,3,0,0,-1 (27)
*FB: 0,1,100.0E-6,.1,1,3,0,0,-1 (27)
*VV: 0,1,100.0E-6,.1,1,3,0,0,-1 (27)
*CB: 0,1,.1,100,1,3,0,0,-1 (27)
*EB: 0,1,.1,10,1,3,0,0,-1 (27)
*ST: 0,1,100.0E-6,.1,1,3,0,0,-1 (27)
*GB: 0,1,100.0E-6,.1,1,3,0,0,-1 (27)
*EndTrace

*BeginParam
*IS=27.790E-12 (10.000E-21,1.0000E-6,0)
*BF=385 (1,1.5000E3,0)
*NF=1 (.8,1.2000,0)
*VAF=100 (0,1.0000E3,0)
*IKF=10.000E-3 (10.000E-3,20,0)
*ISE=0 (0,1,0)
*NE=1.5000 (1,2,0)
*BR=.1001 (.1,500,0)
*NR=1 (.1,5,0)
*VAR=100 (0,1.0000E3,0)
*IKR=10.000E-3 (10.000E-3,20,0)
*ISC=27.790E-12 (0,1,0)
*NC=2 (1,3,0)
*NK=.5 (.1,5,0)
*RE=0 (0,100.00E3,0)
*RB=0 (0,100.00E3,0)
*RC=0 (0,100.00E3,0)
*CJE=2.0000E-12 (0,1,0)
*VJE=.75 (.35,1.5000,0)
*MJE=.33 (.1,1,0)
*CJC=8.5019E-12 (0,1,0)
*VJC=.75 (.35,1.5000,0)
*MJC=.33333 (.1,1,0)
*FC=.5 (.1,1.5000,0)
*TF=1.8147E-9 (0,1,0)
*XTF=10 (0,100.00E3,0)
*VTF=10 (0,100.00E3,0)
*ITF=1 (0,100.00E3,0)
*PTF=0 (0,360,0)
*TR=10.000E-9 (0,1,0)
*EG=1.1100 (.69,5,0)
*XTB=0 (0,100.00E3,0)
*XTI=3 (.1,100.00E3,0)
*EndParam

*DEVICE=Q2SC2712,NPN

* Q2SC2712 NPN model
* created using Parts release 6.3a on 09/13/96 at 22:27
* Parts is a MicroSim product.
.MODEL Q2SC2712 NPN
+ IS=27.790E-12
+ BF=385
+ VAF=100
+ IKF=10.000E-3
+ BR=.1001
+ VAR=100
+ IKR=10.000E-3
+ ISC=27.790E-12
+ CJE=2.0000E-12
+ CJC=8.5019E-12
+ MJC=.33333
+ TF=1.8147E-9
+ XTF=10
+ VTF=10
+ ITF=1
+ TR=10.000E-9
*$
*BeginSpec
*JV: Vbe=1 Vce=.3 Ib=.15 Ib%=10
*OA: Vce=10
*FB: (1.000E-3,155) Vce=1
*VV: (3,.3) Ic/Ib=10
*CB: (10,80.00E-12)
*EB:
*ST: Ic/Ib=10
*GB: (1,120.0E6) Vce=4
*EndSpec

*BeginTrace
*JV: 0,1,100.0E-6,.1,1,3,0,0,-1 (27)
*OA: 1,1,100.0E-6,.1,1,3,0,0,-1 (27)
*FB: 0,1,100.0E-6,.1,1,3,0,0,-1 (27)
*VV: 0,1,100.0E-6,.1,1,3,0,0,-1 (27)
*CB: 0,1,.1,100,1,3,0,0,-1 (27)
*EB: 0,1,.1,10,1,3,0,0,-1 (27)
*ST: 0,1,100.0E-6,.1,1,3,0,0,-1 (27)
*GB: 0,1,100.0E-6,.1,1,3,0,0,-1 (27)
*EndTrace

*BeginParam
*IS=26.433E-15 (10.000E-21,1.0000E-6,0)
*BF=155 (1,1.5000E3,0)
*NF=1 (.8,1.2000,0)
*VAF=100 (0,1.0000E3,0)
*IKF=10.000E-3 (10.000E-3,20,0)
*ISE=0 (0,1,0)
*NE=1.5000 (1,2,0)
*BR=2 (.1,500,0)
*NR=1 (.1,5,0)
*VAR=100 (0,1.0000E3,0)
*IKR=10.000E-3 (10.000E-3,20,0)
*ISC=26.433E-15 (0,1,0)
*NC=2 (1,3,0)
*NK=.5 (.1,5,0)
*RE=0 (0,100.00E3,0)
*RB=0 (0,100.00E3,0)
*RC=0 (0,100.00E3,0)
*CJE=2.0000E-12 (0,1,0)
*VJE=.75 (.35,1.5000,0)
*MJE=.33 (.1,1,0)
*CJC=194.33E-12 (0,1,0)
*VJC=.75 (.35,1.5000,0)
*MJC=.33333 (.1,1,0)
*FC=.5 (.1,1.5000,0)
*TF=142.83E-12 (0,1,0)
*XTF=10 (0,100.00E3,0)
*VTF=10 (0,100.00E3,0)
*ITF=1 (0,100.00E3,0)
*PTF=0 (0,360,0)
*TR=10.000E-9 (0,1,0)
*EG=1.1100 (.69,5,0)
*XTB=0 (0,100.00E3,0)
*XTI=3 (.1,100.00E3,0)
*EndParam

*DEVICE=Q2SC3074,NPN

* Q2SC3074 NPN model
* created using Parts release 6.3a on 09/13/96 at 22:35
* Parts is a MicroSim product.
.MODEL Q2SC3074 NPN
+ IS=26.433E-15
+ BF=155
+ VAF=100
+ IKF=10.000E-3
+ BR=2
+ VAR=100
+ IKR=10.000E-3
+ ISC=26.433E-15
+ CJE=2.0000E-12
+ CJC=194.33E-12
+ MJC=.33333
+ TF=142.83E-12
+ XTF=10
+ VTF=10
+ ITF=1
+ TR=10.000E-9
*$
*BeginSpec
*JV: Vbe=1 Vce=.4 Ib=1 Ib%=10
*OA: Vce=10
*FB: (1.000E-3,107.5) Vce=5
*VV: (10,.4) Ic/Ib=10
*CB: (10,270.0E-12)
*EB:
*ST: Ic/Ib=10
*GB: (1,30.00E6) Vce=5
*EndSpec

*BeginTrace
*JV: 0,1,100.0E-6,.1,1,3,0,0,-1 (27)
*OA: 1,1,100.0E-6,.1,1,3,0,0,-1 (27)
*FB: 0,1,100.0E-6,.1,1,3,0,0,-1 (27)
*VV: 0,1,100.0E-6,.1,1,3,0,0,-1 (27)
*CB: 0,1,.1,100,1,3,0,0,-1 (27)
*EB: 0,1,.1,10,1,3,0,0,-1 (27)
*ST: 0,1,100.0E-6,.1,1,3,0,0,-1 (27)
*GB: 0,1,100.0E-6,.1,1,3,0,0,-1 (27)
*EndTrace

*BeginParam
*IS=8.4177E-12 (10.000E-21,1.0000E-6,0)
*BF=107.50 (1,1.5000E3,0)
*NF=1 (.8,1.2000,0)
*VAF=100 (0,1.0000E3,0)
*IKF=10.000E-3 (10.000E-3,20,0)
*ISE=0 (0,1,0)
*NE=1.5000 (1,2,0)
*BR=2 (.1,500,0)
*NR=1 (.1,5,0)
*VAR=100 (0,1.0000E3,0)
*IKR=10.000E-3 (10.000E-3,20,0)
*ISC=8.4177E-12 (0,1,0)
*NC=2 (1,3,0)
*NK=.5 (.1,5,0)
*RE=0 (0,100.00E3,0)
*RB=0 (0,100.00E3,0)
*RC=0 (0,100.00E3,0)
*CJE=2.0000E-12 (0,1,0)
*VJE=.75 (.35,1.5000,0)
*MJE=.33 (.1,1,0)
*CJC=655.86E-12 (0,1,0)
*VJC=.75 (.35,1.5000,0)
*MJC=.33333 (.1,1,0)
*FC=.5 (.1,1.5000,0)
*TF=613.79E-12 (0,1,0)
*XTF=10 (0,100.00E3,0)
*VTF=10 (0,100.00E3,0)
*ITF=1 (0,100.00E3,0)
*PTF=0 (0,360,0)
*TR=10.000E-9 (0,1,0)
*EG=1.1100 (.69,5,0)
*XTB=0 (0,100.00E3,0)
*XTI=3 (.1,100.00E3,0)
*EndParam

*DEVICE=Q2SC3281,NPN

* Q2SC3281 NPN model
* created using Parts release 6.3a on 09/13/96 at 22:46
* Parts is a MicroSim product.
.MODEL Q2SC3281 NPN
+ IS=8.4177E-12
+ BF=107.50
+ VAF=100
+ IKF=10.000E-3
+ BR=2
+ VAR=100
+ IKR=10.000E-3
+ ISC=8.4177E-12
+ CJE=2.0000E-12
+ CJC=655.86E-12
+ MJC=.33333
+ TF=613.79E-12
+ XTF=10
+ VTF=10
+ ITF=1
+ TR=10.000E-9
*$
*BeginSpec
*JV: Vbe=1 Vce=1.500 Ib=50.00E-3 Ib%=10
*OA: Vce=10
*FB: (.1,155) Vce=5
*VV: (.5,1.500) Ic/Ib=10
*CB: (10,25.00E-12)
*EB:
*ST: Ic/Ib=10
*GB: (.1,100.0E6) Vce=10
*EndSpec

*BeginTrace
*JV: 0,1,100.0E-6,.1,1,3,0,0,-1 (27)
*OA: 1,1,100.0E-6,.1,1,3,0,0,-1 (27)
*FB: 0,1,100.0E-6,.1,1,3,0,0,-1 (27)
*VV: 0,1,100.0E-6,.1,1,3,0,0,-1 (27)
*CB: 0,1,.1,100,1,3,0,0,-1 (27)
*EB: 0,1,.1,10,1,3,0,0,-1 (27)
*ST: 0,1,100.0E-6,.1,1,3,0,0,-1 (27)
*GB: 0,1,100.0E-6,.1,1,3,0,0,-1 (27)
*EndTrace

*BeginParam
*IS=10.000E-15 (10.000E-21,1.0000E-6,0)
*BF=155 (1,1.5000E3,0)
*NF=1 (.8,1.2000,0)
*VAF=100 (0,1.0000E3,0)
*IKF=10.000E-3 (10.000E-3,20,0)
*ISE=0 (0,1,0)
*NE=1.5000 (1,2,0)
*BR=2 (.1,500,0)
*NR=1 (.1,5,0)
*VAR=100 (0,1.0000E3,0)
*IKR=10.000E-3 (10.000E-3,20,0)
*ISC=10.000E-15 (0,1,0)
*NC=2 (1,3,0)
*NK=.5 (.1,5,0)
*RE=0 (0,100.00E3,0)
*RB=0 (0,100.00E3,0)
*RC=0 (0,100.00E3,0)
*CJE=2.0000E-12 (0,1,0)
*VJE=.75 (.35,1.5000,0)
*MJE=.33 (.1,1,0)
*CJC=60.728E-12 (0,1,0)
*VJC=.75 (.35,1.5000,0)
*MJC=.33333 (.1,1,0)
*FC=.5 (.1,1.5000,0)
*TF=339.40E-12 (0,1,0)
*XTF=10 (0,100.00E3,0)
*VTF=10 (0,100.00E3,0)
*ITF=1 (0,100.00E3,0)
*PTF=0 (0,360,0)
*TR=10.000E-9 (0,1,0)
*EG=1.1100 (.69,5,0)
*XTB=0 (0,100.00E3,0)
*XTI=3 (.1,100.00E3,0)
*EndParam

*DEVICE=Q2SC3298B,NPN

* Q2SC3298B NPN model
* created using Parts release 6.3a on 09/13/96 at 22:54
* Parts is a MicroSim product.
.MODEL Q2SC3298B NPN
+ IS=10.000E-15
+ BF=155
+ VAF=100
+ IKF=10.000E-3
+ BR=2
+ VAR=100
+ IKR=10.000E-3
+ ISC=10.000E-15
+ CJE=2.0000E-12
+ CJC=60.728E-12
+ MJC=.33333
+ TF=339.40E-12
+ XTF=10
+ VTF=10
+ ITF=1
+ TR=10.000E-9
*$
*BeginSpec
*JV: Vbe=1 Vce=1.500 Ib=50.00E-3 Ib%=10
*OA: Vce=10
*FB: Vce=5
*VV: Ic/Ib=10
*CB:
*EB:
*ST: Ic/Ib=10
*GB: Vce=10
*EndSpec

*BeginTrace
*JV: 0,1,100.0E-6,.1,1,3,0,0,-1 (27)
*OA: 1,1,100.0E-6,.1,1,3,0,0,-1 (27)
*FB: 0,1,100.0E-6,.1,1,3,0,0,-1 (27)
*VV: 0,1,100.0E-6,.1,1,3,0,0,-1 (27)
*CB: 0,1,.1,100,1,3,0,0,-1 (27)
*EB: 0,1,.1,10,1,3,0,0,-1 (27)
*ST: 0,1,100.0E-6,.1,1,3,0,0,-1 (27)
*GB: 0,1,100.0E-6,.1,1,3,0,0,-1 (27)
*EndTrace

*BeginParam
*IS=10.000E-15 (10.000E-21,1.0000E-6,0)
*BF=100 (1,1.5000E3,0)
*NF=1 (.8,1.2000,0)
*VAF=100 (0,1.0000E3,0)
*IKF=0 (10.000E-3,20,0)
*ISE=0 (0,1,0)
*NE=1.5000 (1,2,0)
*BR=1 (.1,500,0)
*NR=1 (.1,5,0)
*VAR=100 (0,1.0000E3,0)
*IKR=0 (10.000E-3,20,0)
*ISC=0 (0,1,0)
*NC=2 (1,3,0)
*NK=.5 (.1,5,0)
*RE=0 (0,100.00E3,0)
*RB=0 (0,100.00E3,0)
*RC=0 (0,100.00E3,0)
*CJE=2.0000E-12 (0,1,0)
*VJE=.75 (.35,1.5000,0)
*MJE=.33 (.1,1,0)
*CJC=2.0000E-12 (0,1,0)
*VJC=.75 (.35,1.5000,0)
*MJC=.33 (.1,1,0)
*FC=.5 (.1,1.5000,0)
*TF=10.000E-9 (0,1,0)
*XTF=10 (0,100.00E3,0)
*VTF=10 (0,100.00E3,0)
*ITF=1 (0,100.00E3,0)
*PTF=0 (0,360,0)
*TR=10.000E-9 (0,1,0)
*EG=1.1100 (.69,5,0)
*XTB=0 (0,100.00E3,0)
*XTI=3 (.1,100.00E3,0)
*EndParam

*DEVICE=Q2SC3606,NPN

* Q2SC3606 NPN model
* created using Parts release 6.3a on 09/13/96 at 23:04
* Parts is a MicroSim product.
.MODEL Q2SC3606 NPN
+ IS=10.000E-15
+ VAF=100
+ VAR=100
+ CJE=2.0000E-12
+ CJC=2.0000E-12
+ TF=10.000E-9
+ XTF=10
+ VTF=10
+ ITF=1
+ TR=10.000E-9
*$
*BeginSpec
*JV: Vbe=1 Vce=.4 Ib=.8 Ib%=10
*OA: Vce=10
*FB: (1,107.5) Vce=5
*VV: (8,.4) Ic/Ib=10
*CB: (10,270.0E-12)
*EB:
*ST: Ic/Ib=10
*GB: (1,30.00E6) Vce=5
*EndSpec

*BeginTrace
*JV: 0,1,100.0E-6,.1,1,3,0,0,-1 (27)
*OA: 1,1,100.0E-6,.1,1,3,0,0,-1 (27)
*FB: 0,1,100.0E-6,.1,1,3,0,0,-1 (27)
*VV: 0,1,100.0E-6,.1,1,3,0,0,-1 (27)
*CB: 0,1,.1,100,1,3,0,0,-1 (27)
*EB: 0,1,.1,10,1,3,0,0,-1 (27)
*ST: 0,1,100.0E-6,.1,1,3,0,0,-1 (27)
*GB: 0,1,100.0E-6,.1,1,3,0,0,-1 (27)
*EndTrace

*BeginParam
*IS=6.7342E-12 (10.000E-21,1.0000E-6,0)
*BF=107.50 (1,1.5000E3,0)
*NF=1 (.8,1.2000,0)
*VAF=100 (0,1.0000E3,0)
*IKF=10.000E-3 (10.000E-3,20,0)
*ISE=0 (0,1,0)
*NE=1.5000 (1,2,0)
*BR=2 (.1,500,0)
*NR=1 (.1,5,0)
*VAR=100 (0,1.0000E3,0)
*IKR=10.000E-3 (10.000E-3,20,0)
*ISC=6.7342E-12 (0,1,0)
*NC=2 (1,3,0)
*NK=.5 (.1,5,0)
*RE=0 (0,100.00E3,0)
*RB=0 (0,100.00E3,0)
*RC=0 (0,100.00E3,0)
*CJE=2.0000E-12 (0,1,0)
*VJE=.75 (.35,1.5000,0)
*MJE=.33 (.1,1,0)
*CJC=655.86E-12 (0,1,0)
*VJC=.75 (.35,1.5000,0)
*MJC=.33333 (.1,1,0)
*FC=.5 (.1,1.5000,0)
*TF=613.57E-12 (0,1,0)
*XTF=10 (0,100.00E3,0)
*VTF=10 (0,100.00E3,0)
*ITF=1 (0,100.00E3,0)
*PTF=0 (0,360,0)
*TR=10.000E-9 (0,1,0)
*EG=1.1100 (.69,5,0)
*XTB=0 (0,100.00E3,0)
*XTI=3 (.1,100.00E3,0)
*EndParam

*DEVICE=Q2SC4029,NPN

* Q2SC4029 NPN model
* created using Parts release 6.3a on 09/13/96 at 23:12
* Parts is a MicroSim product.
.MODEL Q2SC4029 NPN
+ IS=6.7342E-12
+ BF=107.50
+ VAF=100
+ IKF=10.000E-3
+ BR=2
+ VAR=100
+ IKR=10.000E-3
+ ISC=6.7342E-12
+ CJE=2.0000E-12
+ CJC=655.86E-12
+ MJC=.33333
+ TF=613.57E-12
+ XTF=10
+ VTF=10
+ ITF=1
+ TR=10.000E-9
*$
*BeginSpec
*JV: Vbe=1 Vce=.4 Ib=.8 Ib%=10
*OA: Vce=10
*FB: Vce=5
*VV: Ic/Ib=10
*CB:
*EB:
*ST: Ic/Ib=10
*GB: Vce=5
*EndSpec

*BeginTrace
*JV: 0,1,100.0E-6,.1,1,3,0,0,-1 (27)
*OA: 1,1,100.0E-6,.1,1,3,0,0,-1 (27)
*FB: 0,1,100.0E-6,.1,1,3,0,0,-1 (27)
*VV: 0,1,100.0E-6,.1,1,3,0,0,-1 (27)
*CB: 0,1,.1,100,1,3,0,0,-1 (27)
*EB: 0,1,.1,10,1,3,0,0,-1 (27)
*ST: 0,1,100.0E-6,.1,1,3,0,0,-1 (27)
*GB: 0,1,100.0E-6,.1,1,3,0,0,-1 (27)
*EndTrace

*BeginParam
*IS=10.000E-15 (10.000E-21,1.0000E-6,0)
*BF=100 (1,1.5000E3,0)
*NF=1 (.8,1.2000,0)
*VAF=100 (0,1.0000E3,0)
*IKF=0 (10.000E-3,20,0)
*ISE=0 (0,1,0)
*NE=1.5000 (1,2,0)
*BR=1 (.1,500,0)
*NR=1 (.1,5,0)
*VAR=100 (0,1.0000E3,0)
*IKR=0 (10.000E-3,20,0)
*ISC=0 (0,1,0)
*NC=2 (1,3,0)
*NK=.5 (.1,5,0)
*RE=0 (0,100.00E3,0)
*RB=0 (0,100.00E3,0)
*RC=0 (0,100.00E3,0)
*CJE=2.0000E-12 (0,1,0)
*VJE=.75 (.35,1.5000,0)
*MJE=.33 (.1,1,0)
*CJC=2.0000E-12 (0,1,0)
*VJC=.75 (.35,1.5000,0)
*MJC=.33 (.1,1,0)
*FC=.5 (.1,1.5000,0)
*TF=10.000E-9 (0,1,0)
*XTF=10 (0,100.00E3,0)
*VTF=10 (0,100.00E3,0)
*ITF=1 (0,100.00E3,0)
*PTF=0 (0,360,0)
*TR=10.000E-9 (0,1,0)
*EG=1.1100 (.69,5,0)
*XTB=0 (0,100.00E3,0)
*XTI=3 (.1,100.00E3,0)
*EndParam

*DEVICE=Q2SC4317,NPN

* Q2SC4317 NPN model
* created using Parts release 6.3a on 09/13/96 at 23:16
* Parts is a MicroSim product.
.MODEL Q2SC4317 NPN
+ IS=10.000E-15
+ VAF=100
+ VAR=100
+ CJE=2.0000E-12
+ CJC=2.0000E-12
+ TF=10.000E-9
+ XTF=10
+ VTF=10
+ ITF=1
+ TR=10.000E-9
*$
*BeginSpec
*JV: Vbe=1 Vce=1.500 Ib=50.00E-3 Ib%=10
*OA: Vce=10
*FB: (.1,210) Vce=5
*VV: (.5,1.500) Ic/Ib=10
*CB: (10,20.00E-12)
*EB:
*ST: Ic/Ib=10
*GB: (.1,100.0E6) Vce=10
*EndSpec

*BeginTrace
*JV: 0,1,100.0E-6,.1,1,3,0,0,-1 (27)
*OA: 1,1,100.0E-6,.1,1,3,0,0,-1 (27)
*FB: 0,1,100.0E-6,.1,1,3,0,0,-1 (27)
*VV: 0,1,100.0E-6,.1,1,3,0,0,-1 (27)
*CB: 0,1,.1,100,1,3,0,0,-1 (27)
*EB: 0,1,.1,10,1,3,0,0,-1 (27)
*ST: 0,1,100.0E-6,.1,1,3,0,0,-1 (27)
*GB: 0,1,100.0E-6,.1,1,3,0,0,-1 (27)
*EndTrace

*BeginParam
*IS=10.000E-15 (10.000E-21,1.0000E-6,0)
*BF=210 (1,1.5000E3,0)
*NF=1 (.8,1.2000,0)
*VAF=100 (0,1.0000E3,0)
*IKF=10.000E-3 (10.000E-3,20,0)
*ISE=0 (0,1,0)
*NE=1.5000 (1,2,0)
*BR=2 (.1,500,0)
*NR=1 (.1,5,0)
*VAR=100 (0,1.0000E3,0)
*IKR=10.000E-3 (10.000E-3,20,0)
*ISC=10.000E-15 (0,1,0)
*NC=2 (1,3,0)
*NK=.5 (.1,5,0)
*RE=0 (0,100.00E3,0)
*RB=0 (0,100.00E3,0)
*RC=0 (0,100.00E3,0)
*CJE=2.0000E-12 (0,1,0)
*VJE=.75 (.35,1.5000,0)
*MJE=.33 (.1,1,0)
*CJC=48.582E-12 (0,1,0)
*VJC=.75 (.35,1.5000,0)
*MJC=.33333 (.1,1,0)
*FC=.5 (.1,1.5000,0)
*TF=339.94E-12 (0,1,0)
*XTF=10 (0,100.00E3,0)
*VTF=10 (0,100.00E3,0)
*ITF=1 (0,100.00E3,0)
*PTF=0 (0,360,0)
*TR=10.000E-9 (0,1,0)
*EG=1.1100 (.69,5,0)
*XTB=0 (0,100.00E3,0)
*XTI=3 (.1,100.00E3,0)
*EndParam

*DEVICE=Q2SC4793,NPN

* Q2SC4793 NPN model
* created using Parts release 6.3a on 09/13/96 at 23:21
* Parts is a MicroSim product.
.MODEL Q2SC4793 NPN
+ IS=10.000E-15
+ BF=210
+ VAF=100
+ IKF=10.000E-3
+ BR=2
+ VAR=100
+ IKR=10.000E-3
+ ISC=10.000E-15
+ CJE=2.0000E-12
+ CJC=48.582E-12
+ MJC=.33333
+ TF=339.94E-12
+ XTF=10
+ VTF=10
+ ITF=1
+ TR=10.000E-9
*$
*BeginSpec
*JV: Vbe=.85 Vce=.4 Ib=.3 Ib%=10
*OA: Vce=10
*FB: (500.0E-6,180) Vce=5
*VV: (3,.4) Ic/Ib=10
*CB: (10,70.00E-12)
*EB:
*ST: Ic/Ib=10
*GB: (.5,3.000E6) Vce=5
*EndSpec

*BeginTrace
*JV: 0,1,100.0E-6,.1,1,3,0,0,-1 (27)
*OA: 1,1,100.0E-6,.1,1,3,0,0,-1 (27)
*FB: 0,1,100.0E-6,.1,1,3,0,0,-1 (27)
*VV: 0,1,100.0E-6,.1,1,3,0,0,-1 (27)
*CB: 0,1,.1,100,1,3,0,0,-1 (27)
*EB: 0,1,.1,10,1,3,0,0,-1 (27)
*ST: 0,1,100.0E-6,.1,1,3,0,0,-1 (27)
*GB: 0,1,100.0E-6,.1,1,3,0,0,-1 (27)
*EndTrace

*BeginParam
*IS=833.71E-12 (10.000E-21,1.0000E-6,0)
*BF=180 (1,1.5000E3,0)
*NF=1 (.8,1.2000,0)
*VAF=100 (0,1.0000E3,0)
*IKF=10.000E-3 (10.000E-3,20,0)
*ISE=0 (0,1,0)
*NE=1.5000 (1,2,0)
*BR=2 (.1,500,0)
*NR=1 (.1,5,0)
*VAR=100 (0,1.0000E3,0)
*IKR=10.000E-3 (10.000E-3,20,0)
*ISC=833.71E-12 (0,1,0)
*NC=2 (1,3,0)
*NK=.5 (.1,5,0)
*RE=0 (0,100.00E3,0)
*RB=0 (0,100.00E3,0)
*RC=0 (0,100.00E3,0)
*CJE=2.0000E-12 (0,1,0)
*VJE=.75 (.35,1.5000,0)
*MJE=.33 (.1,1,0)
*CJC=170.04E-12 (0,1,0)
*VJC=.75 (.35,1.5000,0)
*MJC=.33333 (.1,1,0)
*FC=.5 (.1,1.5000,0)
*TF=5.9661E-9 (0,1,0)
*XTF=10 (0,100.00E3,0)
*VTF=10 (0,100.00E3,0)
*ITF=1 (0,100.00E3,0)
*PTF=0 (0,360,0)
*TR=10.000E-9 (0,1,0)
*EG=1.1100 (.69,5,0)
*XTB=0 (0,100.00E3,0)
*XTI=3 (.1,100.00E3,0)
*EndParam

*DEVICE=Q2SD1221,NPN

* Q2SD1221 NPN model
* created using Parts release 6.3a on 09/13/96 at 23:28
* Parts is a MicroSim product.
.MODEL Q2SD1221 NPN
+ IS=833.71E-12
+ BF=180
+ VAF=100
+ IKF=10.000E-3
+ BR=2
+ VAR=100
+ IKR=10.000E-3
+ ISC=833.71E-12
+ CJE=2.0000E-12
+ CJC=170.04E-12
+ MJC=.33333
+ TF=5.9661E-9
+ XTF=10
+ VTF=10
+ ITF=1
+ TR=10.000E-9
*$
*BeginSpec
*JV: Vbe=.875 Vce=.4 Ib=.2 Ib%=10
*OA: Vce=10
*FB: (500.0E-6,210) Vce=5
*VV: (2,.4) Ic/Ib=10
*CB: (10,35.00E-12)
*EB:
*ST: Ic/Ib=10
*GB: (.5,3.000E6) Vce=5
*EndSpec

*BeginTrace
*JV: 0,1,100.0E-6,.1,1,3,0,0,-1 (27)
*OA: 1,1,100.0E-6,.1,1,3,0,0,-1 (27)
*FB: 0,1,100.0E-6,.1,1,3,0,0,-1 (27)
*VV: 0,1,100.0E-6,.1,1,3,0,0,-1 (27)
*CB: 0,1,.1,100,1,3,0,0,-1 (27)
*EB: 0,1,.1,10,1,3,0,0,-1 (27)
*ST: 0,1,100.0E-6,.1,1,3,0,0,-1 (27)
*GB: 0,1,100.0E-6,.1,1,3,0,0,-1 (27)
*EndTrace

*BeginParam
*IS=211.42E-12 (10.000E-21,1.0000E-6,0)
*BF=210 (1,1.5000E3,0)
*NF=1 (.8,1.2000,0)
*VAF=100 (0,1.0000E3,0)
*IKF=10.000E-3 (10.000E-3,20,0)
*ISE=0 (0,1,0)
*NE=1.5000 (1,2,0)
*BR=2 (.1,500,0)
*NR=1 (.1,5,0)
*VAR=100 (0,1.0000E3,0)
*IKR=10.000E-3 (10.000E-3,20,0)
*ISC=211.42E-12 (0,1,0)
*NC=2 (1,3,0)
*NK=.5 (.1,5,0)
*RE=0 (0,100.00E3,0)
*RB=0 (0,100.00E3,0)
*RC=0 (0,100.00E3,0)
*CJE=2.0000E-12 (0,1,0)
*VJE=.75 (.35,1.5000,0)
*MJE=.33 (.1,1,0)
*CJC=85.019E-12 (0,1,0)
*VJC=.75 (.35,1.5000,0)
*MJC=.33333 (.1,1,0)
*FC=.5 (.1,1.5000,0)
*TF=5.9536E-9 (0,1,0)
*XTF=10 (0,100.00E3,0)
*VTF=10 (0,100.00E3,0)
*ITF=1 (0,100.00E3,0)
*PTF=0 (0,360,0)
*TR=10.000E-9 (0,1,0)
*EG=1.1100 (.69,5,0)
*XTB=0 (0,100.00E3,0)
*XTI=3 (.1,100.00E3,0)
*EndParam

*DEVICE=Q2SD2012,NPN

* Q2SD2012 NPN model
* created using Parts release 6.3a on 09/13/96 at 23:34
* Parts is a MicroSim product.
.MODEL Q2SD2012 NPN
+ IS=211.42E-12
+ BF=210
+ VAF=100
+ IKF=10.000E-3
+ BR=2
+ VAR=100
+ IKR=10.000E-3
+ ISC=211.42E-12
+ CJE=2.0000E-12
+ CJC=85.019E-12
+ MJC=.33333
+ TF=5.9536E-9
+ XTF=10
+ VTF=10
+ ITF=1
+ TR=10.000E-9
*$
*BeginSpec
*JV: Vbe=1.700 Vce=.7 Ib=30.00E-3 Ib%=10
*OA: Vce=10
*FB: (3,8.500E3) Vce=3
*VV: (.3,.7) Ic/Ib=10
*CB:
*EB:
*ST: Ic/Ib=10
*GB: Vce=5
*EndSpec

*BeginTrace
*JV: 0,1,100.0E-6,.1,1,3,0,0,-1 (27)
*OA: 1,1,100.0E-6,.1,1,3,0,0,-1 (27)
*FB: 0,1,100.0E-6,.1,1,3,0,0,-1 (27)
*VV: 0,1,100.0E-6,.1,1,3,0,0,-1 (27)
*CB: 0,1,.1,100,1,3,0,0,-1 (27)
*EB: 0,1,.1,10,1,3,0,0,-1 (27)
*ST: 0,1,100.0E-6,.1,1,3,0,0,-1 (27)
*GB: 0,1,100.0E-6,.1,1,3,0,0,-1 (27)
*EndTrace

*BeginParam
*IS=48.504E-21 (10.000E-21,1.0000E-6,0)
*BF=1.4985E3 (1,1.5000E3,0)
*NF=1 (.8,1.2000,0)
*VAF=100 (0,1.0000E3,0)
*IKF=10.000E-3 (10.000E-3,20,0)
*ISE=0 (0,1,0)
*NE=1.5000 (1,2,0)
*BR=.1001 (.1,500,0)
*NR=1 (.1,5,0)
*VAR=100 (0,1.0000E3,0)
*IKR=10.000E-3 (10.000E-3,20,0)
*ISC=1.0000E-15 (0,1,0)
*NC=2 (1,3,0)
*NK=.5 (.1,5,0)
*RE=0 (0,100.00E3,0)
*RB=0 (0,100.00E3,0)
*RC=0 (0,100.00E3,0)
*CJE=2.0000E-12 (0,1,0)
*VJE=.75 (.35,1.5000,0)
*MJE=.33 (.1,1,0)
*CJC=2.0000E-12 (0,1,0)
*VJC=.75 (.35,1.5000,0)
*MJC=.33 (.1,1,0)
*FC=.5 (.1,1.5000,0)
*TF=1.6267E-6 (0,1,0)
*XTF=25.426 (0,100.00E3,0)
*VTF=65.482 (0,100.00E3,0)
*ITF=.18467 (0,100.00E3,0)
*PTF=0 (0,360,0)
*TR=10.000E-9 (0,1,0)
*EG=1.1100 (.69,5,0)
*XTB=0 (0,100.00E3,0)
*XTI=3 (.1,100.00E3,0)
*EndParam

*DEVICE=Q2SD2079,NPN

* Q2SD2079 NPN model
* created using Parts release 6.3a on 09/13/96 at 23:50
* Parts is a MicroSim product.
.MODEL Q2SD2079 NPN
+ IS=48.504E-21
+ BF=1.4985E3
+ VAF=100
+ IKF=10.000E-3
+ BR=.1001
+ VAR=100
+ IKR=10.000E-3
+ ISC=1.0000E-15
+ CJE=2.0000E-12
+ CJC=2.0000E-12
+ TF=1.6267E-6
+ XTF=25.426
+ VTF=65.482
+ ITF=.18467
+ TR=10.000E-9
*$
*BeginSpec
*JV: Vbe=1.500 Vce=2 Ib=.6 Ib%=10
*OA: Vce=10
*FB: (1,107.5) Vce=5
*VV: (6,2) Ic/Ib=10
*CB: (10,160.0E-12)
*EB:
*ST: Ic/Ib=10
*GB: (1,10.00E6) Vce=5
*EndSpec

*BeginTrace
*JV: 0,1,100.0E-6,.1,1,3,0,0,-1 (27)
*OA: 1,1,100.0E-6,.1,1,3,0,0,-1 (27)
*FB: 0,1,100.0E-6,.1,1,3,0,0,-1 (27)
*VV: 0,1,100.0E-6,.1,1,3,0,0,-1 (27)
*CB: 0,1,.1,100,1,3,0,0,-1 (27)
*EB: 0,1,.1,10,1,3,0,0,-1 (27)
*ST: 0,1,100.0E-6,.1,1,3,0,0,-1 (27)
*GB: 0,1,100.0E-6,.1,1,3,0,0,-1 (27)
*EndTrace

*BeginParam
*IS=10.000E-15 (10.000E-21,1.0000E-6,0)
*BF=107.50 (1,1.5000E3,0)
*NF=1 (.8,1.2000,0)
*VAF=100 (0,1.0000E3,0)
*IKF=10.000E-3 (10.000E-3,20,0)
*ISE=0 (0,1,0)
*NE=1.5000 (1,2,0)
*BR=2 (.1,500,0)
*NR=1 (.1,5,0)
*VAR=100 (0,1.0000E3,0)
*IKR=10.000E-3 (10.000E-3,20,0)
*ISC=10.000E-15 (0,1,0)
*NC=2 (1,3,0)
*NK=.5 (.1,5,0)
*RE=0 (0,100.00E3,0)