*Low Noise Amp PC=0.2W Ic=0.1A Vcbo=120V
.model Q2SA1049 PNP(Is=350.8n Xti=3 Eg=1.11 Vaf=40 Bf=350 Ne=1.5 Ise=0 Ikf=0
+               Xtb=1.5 Br=.7978 Nc=2 Isc=0 Ikr=0 Rc=4 Cjc=12.26p Mjc=.3652
+               Vjc=.75 Fc=.5 Cje=5p Mje=.3333 Vje=.75 Tr=10n Tf=1.305n Itf=0
+               Vtf=0 Xtf=0)
*		TOSHIBA		90-01-23	creation
