.model Q2SA1145 PNP(Is=173.9p  Eg=1.11 Vaf=60 Bf=110  Br=1  Nc=2  Cjs=2p
+               Cjc= 6.02p Mjc=.330  Vjc=.75  Cje=1p Mje=.33  Vje=.75 
+               Tr=10n Tf=0.788n)
* CQ 1988/7
