.model Q2SA1313 PNP(Is=14.1f Xti=3 Eg=1.11 Vaf=100 Bf=150 Ne=1.5 Ise=0 Ikf=.8
+               Xtb=1.5 Br=3.338 Nc=2 Isc=0 Ikr=0 Rc=.6 Cjc=59.01p Mjc=.6885
+               Vjc=.75 Fc=.5 Cje=5p Mje=.3333 Vje=.75 Tr=10n Tf=766.1p Itf=0
+               Vtf=0 Xtf=0)
*		TOSHIBA		90-01-23	creation
