*Low Noise Amp PC=0.2W Ic=0.05A Vcbo=50V
.model Q2SA1048 PNP(Is=295.1E-18 Xti=3 Eg=1.11 Vaf=100 Bf=110 Ne=1.5 Ise=0
+               Ikf=0 Xtb=1.5 Br=10.45 Nc=2 Isc=0 Ikr=0 Rc=15 Cjc=66.2p
+               Mjc=1.054 Vjc=.75 Fc=.5 Cje=5p Mje=.3333 Vje=.75 Tr=10n
+               Tf=1.661n Itf=0 Vtf=0 Xtf=0)
*               TOSHIBA		90-01-23	creation
