.model Q2SA1298 PNP(Is=141f Xti=3 Eg=1.11 Vaf=20 Bf=230 Ne=1.5 Ise=0 Ikf=.7
+               Xtb=1.5 Br=14.57 Nc=2 Isc=0 Ikr=0 Rc=1 Cjc=622.4p Mjc=1.453
+               Vjc=.75 Fc=.5 Cje=5p Mje=.3333 Vje=.75 Tr=10n Tf=1.205n Itf=0
+               Vtf=0 Xtf=0)
*		TOSHIBA		90-01-26	creation
