.model Q2SA817  PNP(Bf=120 Br=1 Is=88f     Eg=1.11 Cjc=34p Cje=70p Vaf=100
+               Tf=1.553n  Tr=10n Mjc=.330  Vjc=.75  Mje=.33  Vje=.75 
+               Cjs=2p )
* CQ 1988/7
