.model Q2SA952  PNP(Bf=200 Br=1 Is=83f     Eg=1.11 Cjc=4.8p Cje=10p Vaf=50
+               Tf=0.988n  Tr=10n Mjc=.330  Vjc=.75  Mje=.33  Vje=.75 
+               Cjs=2p )
* CQ 1988/7
