.model Q2SB688  PNP(Bf=70  Br=1 Is=73f      Eg=1.11 Cjc=4.8p Cje=10p Vaf=100
+               Tf=1.923n  Tr=10n Mjc=.330  Vjc=.75  Mje=.33  Vje=.75 
+               Cjs=2p )
* CQ 1988/7
