.model Q2SB799  PNP(Is=15.01f Xti=3 Eg=1.11 Vaf=70 Bf=199.4 Ne=1.112
+               Ise=164.6E-18 Ikf=2 Xtb=1.5 Br=9.83 Nc=2 Isc=0 Ikr=0 Rc=.001
+               Cjc=58.04p Mjc=.3818 Vjc=.75 Fc=.5 Cje=5p Mje=.3333 Vje=.75
+               Tr=10n Tf=1.084n Itf=0 Vtf=0 Xtf=0)
*		NEC		89-12-08	creation
