.model Q2SB800  PNP(Is=62.26f Xti=3 Eg=1.11 Vaf=2 Bf=370 Ne=1.01
+               Ise=8.673E-18 Ikf=50m Xtb=1.5 Br=13.28 Nc=2 Isc=0 Ikr=0 Rc=.4
+               Cjc=26.22p Mjc=.3197 Vjc=.75 Fc=.5 Cje=42.32p Mje=.4061 Vje=.75
+               Tr=10n Tf=1.342n Itf=0 Vtf=0 Xtf=0)
*		NEC		89-12-08	creation
