.model Q2SC1627 NPN(Bf=140 Br=1 Is=0.174p  Eg=1.11 Cjc=24p Cje=1p Vaf=150
+               Tf=1.503n  Tr=10n Mjc=.330  Vjc=.75  Mje=.33  Vje=.75 
+               Cjs=2p )
* CQ 1988/7
