*Low Noise Amp PC=0.4W Ic=0.15A Vcbo=60V
.model Q2SC1815 NPN(Is=2.04f Xti=3 Eg=1.11 Vaf=6 Bf=400 Ne=1.5 Ise=0
+               Ikf=20m Xtb=1.5 Br=3.377 Nc=2 Isc=0 Ikr=0 Rc=1 Cjc=2p
+               Mjc=.3333
+               Vjc=.75 Fc=.5 Cje=5p Mje=.3333 Vje=.75 Tr=10n Tf=311.1p
+               Itf=0 Vtf=0 Xtf=0)
*		TOSHIBA		90-01-29	creation
