.model Q2SC1675 NPN(Bf=100 Br=1 Is=1.771f  Eg=1.11 Cjc=4.5p Cje=1p Vaf=100
+               Tf=0.432p  Tr=10n Mjc=.330  Vjc=.75  Mje=.33  Vje=.75 
+               Cjs=2p )
* CQ 1988/7
