.model Q2SC1907 NPN(Is=1.00f Xti=3 Eg=1.11 Vaf= 40 Bf=350 
+              Ikf=150m Nk=0.995 Ise= 90f Ne=1.5
+              Xtb=1.5 Br=.1    Nc=2 Isc=0 Ikr=0 
+              Cjc=3p Cje=5p Rb=10 Rc=2
+              Tr=1n  Tf=0.250n Itf=0 Vtf=0 Xtf=0)
*        Hitachi EP UHF-amp,mix,osc
