.model Q2SC288  NPN(Bf=70 CJC=0.7pF CJE=1.0pF Rb=15 Rc=3
+               Tr=0.2n Tf=0.2n)
*ＣＱトランジスタ規格表よりの推定 Cob=0.7pf Cc.rbb=10ps hfe=70 @ 6v,2mA
