.model Q2SC2668 NPN(Bf=350 Br=1 Is=1.00f    Eg=1.11 Cjc=15p Cje= 1p Vaf=100
+               Tf=3.612n  Tr=10n Mjc=.330  Vjc=.75  Mje=.33  Vje=.75 
+               Cjs=2p )
* CQ 1988/7
