.model Q2SC2003 NPN(Bf=200 Br=1 Is=57.6f    Eg=1.11 Cjc=17p Cje=47p Vaf=50
+               Tf=1.059n  Tr=10n Mjc=.330  Vjc=.75  Mje=.33  Vje=.75 
+               Cjs=2p )
* CQ 1988/7
