.model Q2SC2669 NPN(Bf=100 Br=1 Is=1.59e-20 Eg=1.11 Cjc= 7p Cje=49p Vaf=100
+               Tf=0.883n  Tr=10n Mjc=.330  Vjc=.75  Mje=.33  Vje=.75 
+               Cjs=2p )
* CQ 1988/7
