.model Q2SC2754 NPN(Bf=180 Br=1 Is=8.321f   Eg=1.11 Cjc=4.8p Cje= 1p Vaf=100
+               Tf=0.391n  Tr=.48u Mjc=.330  Vjc=.75  Mje=.33  Vje=.75 
+               Cjs=2p )
* CQ 1988/7
