.model Q2SC2240 NPN(Is=1.41f Xti=3 Eg=1.11 Vaf=100 Bf=310 Ne=1.5 Ise=0
+               Ikf=70m Xtb=1.5 Br=.8893 Nc=2 Isc=0 Ikr=0 Rc=30 Cjc=6.878p
+               Mjc=.2725 Vjc=.75 Fc=.5 Cje=5p Mje=.3333 Vje=.75 Tr=10n
+               Tf=1.276n Itf=0 Vtf=0 Xtf=0)
*		TOSHIBA		90-01-29	creation
