.model Q2SC3358 NPN(Bf=120 Br=1 Is=16f Eg=1.11 Cjc=0.5p Cje=0.75p Vaf=200
+               Tf=23p  Tr=2n  Mjc=.330  Vjc=.75  Mje=.33  Vje=.75 
+               Cjs=1p )
* トランジスタ規格表より Cre=0.5pf(帰還容量）　hfe(DC)=120 @20mA fT=7GHz
