.model Q2SC3279 NPN(Bf=180 Br=1 Is=1.217n  Eg=1.11 Cjc=65p Cje=1p Vaf=100
+               Tf=1.060n  Tr=10n Mjc=.330  Vjc=.75  Mje=.33  Vje=.75 
+               Cjs=2p )
* CQ 1988/7
