.model Q2SC3378 NPN(Bf=300 Br=1 Is=695p    Eg=1.11 Cjc=7.7p Cje=1p Vaf=200
+               Tf=1.252n  Tr=10n Mjc=.330  Vjc=.75  Mje=.33  Vje=.75 
+               Cjs=2p )
* CQ 1988/7
