.model Q2SC945  NPN(Bf=150 Br=1 Is=180.4p  Eg=1.11 Cjc=6.4p Cje=20p Vaf=50
+               Tf=.6041n  Tr=10n  Mjc=.330  Vjc=.75  Mje=.33  Vje=.75 
+               Cjs=2p )
* CQ 1988/7
