.model Q2SC980A NPN(Bf=140 Br=1 Is=229.6p  Eg=1.11 Cjc=6.6p Cje=20p Vaf=50
+               Tf=.6039n  Tr=49n  Mjc=.330  Vjc=.75  Mje=.33  Vje=.75 
+               Cjs=2p )
* CQ 1988/7
