.model Q2SD1588 NPN(Is=6.467E-18 Xti=3 Eg=1.11 Vaf=100 Bf=500k Ne=4.522
+               Ise=57.25n Ikf=100u Xtb=1.5 Br=3.474K Nc=2 Isc=0 Ikr=0 Rc=50m
+               Cjc=2p Mjc=.3333 Vjc=.75 Fc=.5 Cje=5p Mje=.3333 Vje=.75 Tr=10n
+               Tf=1n Itf=0 Vtf=0 Xtf=0)
*		NEC		90-01-11	creation
