.model Q2SD1007 NPN(Is=15.01f Xti=3 Eg=1.11 Vaf=100 Bf=214 Ne=2.726 Ise=266.1p
+               Ikf=.5 Xtb=1.5 Br=77.03 Nc=2 Isc=0 Ikr=0 Rc=5 Cjc=31.21p
+               Mjc=.4128 Vjc=.75 Fc=.5 Cje=5p Mje=.3333 Vje=.75 Tr=10n
+               Tf=988.1p Itf=0 Vtf=0 Xtf=0)
*		NEC		89-12-14	creation
*
