.model Q2SD525  NPN(Bf= 60 Br=1 Is=254.3p  Eg=1.11 Cjc=241p Cje=1p Vaf=50 
+               Tf=13.26n  Tr=10n Mjc=.330  Vjc=.75  Mje=.33  Vje=.75 
+               Cjs=2p )
* CQ 1988/7
