***********************************************
*ELECTRONICS WORKBENCH MODEL FILE             * 
*MODELS GENERATED BY: R. TALOS                *
*(c) 1996 INTERACTIVE IMAGE TECHNOLOGIES LTD. * 
*TORONTO, ONTARIO (416)977-5550.              *
***********************************************
*BeginSpec
*JV: Vbe=-.75 Vce=-.3 Ib=-5.000E-3 Ib%=10
*OA: (-1.000E-3,30.00E-6) Vce=-10
*FB: (-10.00E-3,200) Vce=-1
*VV: (-10.00E-3,-.25) Ic/Ib=10
*CB: (-5,4.500E-12)
*EB: (-.5,10.00E-12)
*ST: Ic/Ib=10
*GB: (-10.00E-3,250.0E6) Vce=-20
*EndSpec

*BeginTrace
*JV: 0,1,-100.0E-6,-.1,1,3,0,0,-1 (27)
*OA: 1,1,-100.0E-6,-.1,1,3,0,0,-1 (27)
*FB: 0,1,-100.0E-6,-.1,1,3,0,0,-1 (27)
*VV: 0,1,-100.0E-6,-.1,1,3,0,0,-1 (27)
*CB: 0,1,-.1,-100,1,3,0,0,-1 (27)
*EB: 0,1,-.1,-10,1,3,0,0,-1 (27)
*ST: 0,1,-100.0E-6,-.1,1,3,0,0,-1 (27)
*GB: 0,1,-100.0E-6,-.1,1,3,0,0,-1 (27)
*EndTrace

*BeginParam
*IS=13.895E-12 (10.000E-21,1.0000E-6,0)
*BF=200 (1,1.5000E3,0)
*NF=1 (.8,1.2000,0)
*VAF=24.033 (0,1.0000E3,0)
*IKF=10.000E-3 (10.000E-3,20,0)
*ISE=0 (0,1,0)
*NE=1.5000 (1,2,0)
*BR=.1001 (.1,500,0)
*NR=1 (.1,5,0)
*VAR=100 (0,1.0000E3,0)
*IKR=10.000E-3 (10.000E-3,20,0)
*ISC=13.895E-12 (0,1,0)
*NC=2 (1,3,0)
*NK=.5 (.1,5,0)
*RE=0 (0,100.00E3,0)
*RB=0 (0,100.00E3,0)
*RC=0 (0,100.00E3,0)
*CJE=11.856E-12 (0,1,0)
*VJE=.75 (.35,1.5000,0)
*MJE=.33333 (.1,1,0)
*CJC=8.8732E-12 (0,1,0)
*VJC=.75 (.35,1.5000,0)
*MJC=.33333 (.1,1,0)
*FC=.5 (.1,1.5000,0)
*TF=566.27E-12 (0,1,0)
*XTF=10 (0,100.00E3,0)
*VTF=10 (0,100.00E3,0)
*ITF=1 (0,100.00E3,0)
*PTF=0 (0,360,0)
*TR=10.000E-9 (0,1,0)
*EG=1.1100 (.69,5,0)
*XTB=0 (0,100.00E3,0)
*XTI=3 (.1,100.00E3,0)
*EndParam

*DEVICE=Q2N3906,PNP

* Q2N3906 PNP model
* created using Parts release 6.3a on 09/13/96 at 20:51
* Parts is a MicroSim product.
.MODEL Q2N3906 PNP
+ IS=13.895E-12
+ BF=200
+ VAF=24.033
+ IKF=10.000E-3
+ BR=.1001
+ VAR=100
+ IKR=10.000E-3
+ ISC=13.895E-12
+ CJE=11.856E-12
+ MJE=.33333
+ CJC=8.8732E-12
+ MJC=.33333
+ TF=566.27E-12
+ XTF=10
+ VTF=10
+ ITF=1
+ TR=10.000E-9
*$
*BeginSpec
*JV: Vbe=.95 Vce=.3 Ib=5.000E-3 Ib%=10
*OA: Vce=-10
*FB: (2.000E-3,100) Vce=1
*VV: (50.00E-3,.3) Ic/Ib=10
*CB: (5,4.000E-12)
*EB: (.5,8.000E-12)
*ST: Ic/Ib=10
*GB: (10.00E-3,250.0E6) Vce=20
*EndSpec

*BeginTrace
*JV: 0,1,100.0E-6,.1,1,3,0,0,-1 (27)
*OA: 1,1,100.0E-6,.1,1,3,0,0,-1 (27)
*FB: 0,1,100.0E-6,.1,1,3,0,0,-1 (27)
*VV: 0,1,100.0E-6,.1,1,3,0,0,-1 (27)
*CB: 0,1,.1,100,1,3,0,0,-1 (27)
*EB: 0,1,.1,10,1,3,0,0,-1 (27)
*ST: 0,1,100.0E-6,.1,1,3,0,0,-1 (27)
*GB: 0,1,100.0E-6,.1,1,3,0,0,-1 (27)
*EndTrace

*BeginParam
*IS=6.0897E-15 (10.000E-21,1.0000E-6,0)
*BF=100 (1,1.5000E3,0)
*NF=1 (.8,1.2000,0)
*VAF=100 (0,1.0000E3,0)
*IKF=10.000E-3 (10.000E-3,20,0)
*ISE=0 (0,1,0)
*NE=1.5000 (1,2,0)
*BR=.1001 (.1,500,0)
*NR=1 (.1,5,0)
*VAR=100 (0,1.0000E3,0)
*IKR=10.000E-3 (10.000E-3,20,0)
*ISC=6.0897E-15 (0,1,0)
*NC=2 (1,3,0)
*NK=.5 (.1,5,0)
*RE=0 (0,100.00E3,0)
*RB=0 (0,100.00E3,0)
*RC=0 (0,100.00E3,0)
*CJE=9.4850E-12 (0,1,0)
*VJE=.75 (.35,1.5000,0)
*MJE=.33333 (.1,1,0)
*CJC=7.8873E-12 (0,1,0)
*VJC=.75 (.35,1.5000,0)
*MJC=.33333 (.1,1,0)
*FC=.5 (.1,1.5000,0)
*TF=565.58E-12 (0,1,0)
*XTF=10 (0,100.00E3,0)
*VTF=10 (0,100.00E3,0)
*ITF=1 (0,100.00E3,0)
*PTF=0 (0,360,0)
*TR=10.000E-9 (0,1,0)
*EG=1.1100 (.69,5,0)
*XTB=0 (0,100.00E3,0)
*XTI=3 (.1,100.00E3,0)
*EndParam


*DEVICE=Q2N4125,PNP

* Q2N4125 PNP model
* created using Parts release 6.3a on 09/14/96 at 01:09
* Parts is a MicroSim product.
.MODEL Q2N4125 PNP
+ IS=290.89E-15
+ VAF=100
+ IKF=10.000E-3
+ BR=.1001
+ VAR=100
+ IKR=10.000E-3
+ ISC=290.89E-15
+ CJE=11.856E-12
+ MJE=.33333
+ CJC=8.8732E-12
+ MJC=.33333
+ TF=713.31E-12
+ XTF=10
+ VTF=10
+ ITF=1
+ TR=10.000E-9
*$
*BeginSpec
*JV: Vbe=-.95 Vce=-.4 Ib=-5.000E-3 Ib%=10
*OA: Vce=10
*FB: (-2.000E-3,240) Vce=-1
*VV: (-50.00E-3,-.4) Ic/Ib=10
*CB: (-5,4.500E-12)
*EB: (-.5,10.00E-12)
*ST: Ic/Ib=10
*GB: (-10.00E-3,250.0E6) Vce=-20
*EndSpec

*BeginTrace
*JV: 0,1,-100.0E-6,-.1,1,3,0,0,-1 (27)
*OA: 1,1,-100.0E-6,-.1,1,3,0,0,-1 (27)
*FB: 0,1,-100.0E-6,-.1,1,3,0,0,-1 (27)
*VV: 0,1,-100.0E-6,-.1,1,3,0,0,-1 (27)
*CB: 0,1,-.1,-100,1,3,0,0,-1 (27)
*EB: 0,1,-.1,-10,1,3,0,0,-1 (27)
*ST: 0,1,-100.0E-6,-.1,1,3,0,0,-1 (27)
*GB: 0,1,-100.0E-6,-.1,1,3,0,0,-1 (27)
*EndTrace

*BeginParam
*IS=290.89E-15 (10.000E-21,1.0000E-6,0)
*BF=240 (1,1.5000E3,0)
*NF=1 (.8,1.2000,0)
*VAF=100 (0,1.0000E3,0)
*IKF=10.000E-3 (10.000E-3,20,0)
*ISE=0 (0,1,0)
*NE=1.5000 (1,2,0)
*BR=.1001 (.1,500,0)
*NR=1 (.1,5,0)
*VAR=100 (0,1.0000E3,0)
*IKR=10.000E-3 (10.000E-3,20,0)
*ISC=290.89E-15 (0,1,0)
*NC=2 (1,3,0)
*NK=.5 (.1,5,0)
*RE=0 (0,100.00E3,0)
*RB=0 (0,100.00E3,0)
*RC=0 (0,100.00E3,0)
*CJE=11.856E-12 (0,1,0)
*VJE=.75 (.35,1.5000,0)
*MJE=.33333 (.1,1,0)
*CJC=8.8732E-12 (0,1,0)
*VJC=.75 (.35,1.5000,0)
*MJC=.33333 (.1,1,0)
*FC=.5 (.1,1.5000,0)
*TF=554.57E-12 (0,1,0)
*XTF=10 (0,100.00E3,0)
*VTF=10 (0,100.00E3,0)
*ITF=1 (0,100.00E3,0)
*PTF=0 (0,360,0)
*TR=10.000E-9 (0,1,0)
*EG=1.1100 (.69,5,0)
*XTB=0 (0,100.00E3,0)
*XTI=3 (.1,100.00E3,0)
*EndParam

*DEVICE=Q2N4126,PNP

* Q2N4126 PNP model
* created using Parts release 6.3a on 09/14/96 at 01:16
* Parts is a MicroSim product.
.MODEL Q2N4126 PNP
+ IS=290.89E-15
+ BF=240
+ VAF=100
+ IKF=10.000E-3
+ BR=.1001
+ VAR=100
+ IKR=10.000E-3
+ ISC=290.89E-15
+ CJE=11.856E-12
+ MJE=.33333
+ CJC=8.8732E-12
+ MJC=.33333
+ TF=554.57E-12
+ XTF=10
+ VTF=10
+ ITF=1
+ TR=10.000E-9
*$
*BeginSpec
*JV: Vbe=-.85 Vce=-.4 Ib=-15.00E-3 Ib%=10
*OA: Vce=-10
*FB: (-.15,200) Vce=-1
*VV: (-.15,-.4) Ic/Ib=10
*CB: (-10,8.500E-12)
*EB: (-.5,30.00E-12)
*ST: Ic/Ib=10
*GB: (-20.00E-3,200.0E6) Vce=-10
*EndSpec

*BeginTrace
*JV: 0,1,-100.0E-6,-.1,1,3,0,0,-1 (27)
*OA: 1,1,-100.0E-6,-.1,1,3,0,0,-1 (27)
*FB: 0,1,-100.0E-6,-.1,1,3,0,0,-1 (27)
*VV: 0,1,-100.0E-6,-.1,1,3,0,0,-1 (27)
*CB: 0,1,-.1,-100,1,3,0,0,-1 (27)
*EB: 0,1,-.1,-10,1,3,0,0,-1 (27)
*ST: 0,1,-100.0E-6,-.1,1,3,0,0,-1 (27)
*GB: 0,1,-100.0E-6,-.1,1,3,0,0,-1 (27)
*EndTrace

*BeginParam
*IS=41.686E-12 (10.000E-21,1.0000E-6,0)
*BF=200 (1,1.5000E3,0)
*NF=1 (.8,1.2000,0)
*VAF=100 (0,1.0000E3,0)
*IKF=10.000E-3 (10.000E-3,20,0)
*ISE=0 (0,1,0)
*NE=1.5000 (1,2,0)
*BR=.1001 (.1,500,0)
*NR=1 (.1,5,0)
*VAR=100 (0,1.0000E3,0)
*IKR=10.000E-3 (10.000E-3,20,0)
*ISC=41.686E-12 (0,1,0)
*NC=2 (1,3,0)
*NK=.5 (.1,5,0)
*RE=0 (0,100.00E3,0)
*RB=0 (0,100.00E3,0)
*RC=0 (0,100.00E3,0)
*CJE=35.569E-12 (0,1,0)
*VJE=.75 (.35,1.5000,0)
*MJE=.33333 (.1,1,0)
*CJC=20.648E-12 (0,1,0)
*VJC=.75 (.35,1.5000,0)
*MJC=.33333 (.1,1,0)
*FC=.5 (.1,1.5000,0)
*TF=634.72E-12 (0,1,0)
*XTF=10 (0,100.00E3,0)
*VTF=10 (0,100.00E3,0)
*ITF=1 (0,100.00E3,0)
*PTF=0 (0,360,0)
*TR=10.000E-9 (0,1,0)
*EG=1.1100 (.69,5,0)
*XTB=0 (0,100.00E3,0)
*XTI=3 (.1,100.00E3,0)
*EndParam

*DEVICE=Q2N4403,PNP

* Q2N4403 PNP model
* created using Parts release 6.3a on 09/14/96 at 01:41
* Parts is a MicroSim product.
.MODEL Q2N4403 PNP
+ IS=41.686E-12
+ BF=200
+ VAF=100
+ IKF=10.000E-3
+ BR=.1001
+ VAR=100
+ IKR=10.000E-3
+ ISC=41.686E-12
+ CJE=35.569E-12
+ MJE=.33333
+ CJC=20.648E-12
+ MJC=.33333
+ TF=634.72E-12
+ XTF=10
+ VTF=10
+ ITF=1
+ TR=10.000E-9
*$
*BeginSpec
*JV: Vbe=-1 Vce=-.2 Ib=-1.000E-3 Ib%=10
*OA: Vce=10
*FB: (-10.00E-3,110) Vce=-5
*VV: (-10.00E-3,-.2) Ic/Ib=10
*CB: (-10,6.000E-12)
*EB:
*ST: Ic/Ib=10
*GB: (-10,250.0E6) Vce=-5
*EndSpec

*BeginTrace
*JV: 0,1,-100.0E-6,-.1,1,3,0,0,-1 (27)
*OA: 1,1,-100.0E-6,-.1,1,3,0,0,-1 (27)
*FB: 0,1,-100.0E-6,-.1,1,3,0,0,-1 (27)
*VV: 0,1,-100.0E-6,-.1,1,3,0,0,-1 (27)
*CB: 0,1,-.1,-100,1,3,0,0,-1 (27)
*EB: 0,1,-.1,-10,1,3,0,0,-1 (27)
*ST: 0,1,-100.0E-6,-.1,1,3,0,0,-1 (27)
*GB: 0,1,-100.0E-6,-.1,1,3,0,0,-1 (27)
*EndTrace

*BeginParam
*IS=3.6891E-18 (10.000E-21,1.0000E-6,0)
*BF=110 (1,1.5000E3,0)
*NF=1 (.8,1.2000,0)
*VAF=100 (0,1.0000E3,0)
*IKF=10.000E-3 (10.000E-3,20,0)
*ISE=0 (0,1,0)
*NE=1.5000 (1,2,0)
*BR=.1001 (.1,500,0)
*NR=1 (.1,5,0)
*VAR=100 (0,1.0000E3,0)
*IKR=10.000E-3 (10.000E-3,20,0)
*ISC=1.0000E-15 (0,1,0)
*NC=2 (1,3,0)
*NK=.5 (.1,5,0)
*RE=0 (0,100.00E3,0)
*RB=0 (0,100.00E3,0)
*RC=0 (0,100.00E3,0)
*CJE=2.0000E-12 (0,1,0)
*VJE=.75 (.35,1.5000,0)
*MJE=.33 (.1,1,0)
*CJC=14.575E-12 (0,1,0)
*VJC=.75 (.35,1.5000,0)
*MJC=.33333 (.1,1,0)
*FC=.5 (.1,1.5000,0)
*TF=72.946E-12 (0,1,0)
*XTF=10 (0,100.00E3,0)
*VTF=10 (0,100.00E3,0)
*ITF=1 (0,100.00E3,0)
*PTF=0 (0,360,0)
*TR=10.000E-9 (0,1,0)
*EG=1.1100 (.69,5,0)
*XTB=0 (0,100.00E3,0)
*XTI=3 (.1,100.00E3,0)
*EndParam

*DEVICE=Q2N5400,PNP

* Q2N5400 PNP model
* created using Parts release 6.3a on 09/14/96 at 02:16
* Parts is a MicroSim product.
.MODEL Q2N5400 PNP
+ IS=3.6891E-18
+ BF=110
+ VAF=100
+ IKF=10.000E-3
+ BR=.1001
+ VAR=100
+ IKR=10.000E-3
+ ISC=1.0000E-15
+ CJE=2.0000E-12
+ CJC=14.575E-12
+ MJC=.33333
+ TF=72.946E-12
+ XTF=10
+ VTF=10
+ ITF=1
+ TR=10.000E-9
*$
*BeginSpec
*JV: Vbe=-1 Vce=-.2 Ib=-1.000E-3 Ib%=10
*OA: Vce=-5
*FB: (-10.00E-3,150) Vce=-5
*VV: (-10.00E-3,-.2) Ic/Ib=10
*CB: (-10,6.000E-12)
*EB:
*ST: Ic/Ib=10
*GB: (-10.00E-3,200.0E6) Vce=-10
*EndSpec

*BeginTrace
*JV: 0,1,-100.0E-6,-.1,1,3,0,0,-1 (27)
*OA: 1,1,-100.0E-6,-.1,1,3,0,0,-1 (27)
*FB: 0,1,-100.0E-6,-.1,1,3,0,0,-1 (27)
*VV: 0,1,-100.0E-6,-.1,1,3,0,0,-1 (27)
*CB: 0,1,-.1,-100,1,3,0,0,-1 (27)
*EB: 0,1,-.1,-10,1,3,0,0,-1 (27)
*ST: 0,1,-100.0E-6,-.1,1,3,0,0,-1 (27)
*GB: 0,1,-100.0E-6,-.1,1,3,0,0,-1 (27)
*EndTrace

*BeginParam
*IS=3.6891E-18 (10.000E-21,1.0000E-6,0)
*BF=150 (1,1.5000E3,0)
*NF=1 (.8,1.2000,0)
*VAF=100 (0,1.0000E3,0)
*IKF=10.000E-3 (10.000E-3,20,0)
*ISE=0 (0,1,0)
*NE=1.5000 (1,2,0)
*BR=.1001 (.1,500,0)
*NR=1 (.1,5,0)
*VAR=100 (0,1.0000E3,0)
*IKR=10.000E-3 (10.000E-3,20,0)
*ISC=1.0000E-15 (0,1,0)
*NC=2 (1,3,0)
*NK=.5 (.1,5,0)
*RE=0 (0,100.00E3,0)
*RB=0 (0,100.00E3,0)
*RC=0 (0,100.00E3,0)
*CJE=2.0000E-12 (0,1,0)
*VJE=.75 (.35,1.5000,0)
*MJE=.33 (.1,1,0)
*CJC=14.575E-12 (0,1,0)
*VJC=.75 (.35,1.5000,0)
*MJC=.33333 (.1,1,0)
*FC=.5 (.1,1.5000,0)
*TF=752.80E-12 (0,1,0)
*XTF=10 (0,100.00E3,0)
*VTF=10 (0,100.00E3,0)
*ITF=1 (0,100.00E3,0)
*PTF=0 (0,360,0)
*TR=10.000E-9 (0,1,0)
*EG=1.1100 (.69,5,0)
*XTB=0 (0,100.00E3,0)
*XTI=3 (.1,100.00E3,0)
*EndParam

*DEVICE=Q2N5401,PNP

* Q2N5401 PNP model
* created using Parts release 6.3a on 09/14/96 at 20:20
* Parts is a MicroSim product.
.MODEL Q2N5401 PNP
+ IS=3.6891E-18
+ BF=150
+ VAF=100
+ IKF=10.000E-3
+ BR=.1001
+ VAR=100
+ IKR=10.000E-3
+ ISC=1.0000E-15
+ CJE=2.0000E-12
+ CJC=14.575E-12
+ MJC=.33333
+ TF=752.80E-12
+ XTF=10
+ VTF=10
+ ITF=1
+ TR=10.000E-9
*$
*BeginSpec
*JV: Vbe=-1.100 Vce=-.2 Ib=-10.00E-3 Ib%=10
*OA: Vce=5
*FB: (-2.000E-3,155) Vce=-6
*VV: (-.1,-.2) Ic/Ib=10
*CB: (-10,7.000E-12)
*EB:
*ST: Ic/Ib=10
*GB: (-1.000E-3,80.00E6) Vce=-10
*EndSpec

*BeginTrace
*JV: 0,1,-100.0E-6,-.1,1,3,0,0,-1 (27)
*OA: 1,1,-100.0E-6,-.1,1,3,0,0,-1 (27)
*FB: 0,1,-100.0E-6,-.1,1,3,0,0,-1 (27)
*VV: 0,1,-100.0E-6,-.1,1,3,0,0,-1 (27)
*CB: 0,1,-.1,-100,1,3,0,0,-1 (27)
*EB: 0,1,-.1,-10,1,3,0,0,-1 (27)
*ST: 0,1,-100.0E-6,-.1,1,3,0,0,-1 (27)
*GB: 0,1,-100.0E-6,-.1,1,3,0,0,-1 (27)
*EndTrace

*BeginParam
*IS=772.31E-21 (10.000E-21,1.0000E-6,0)
*BF=155 (1,1.5000E3,0)
*NF=1 (.8,1.2000,0)
*VAF=100 (0,1.0000E3,0)
*IKF=10.000E-3 (10.000E-3,20,0)
*ISE=0 (0,1,0)
*NE=1.5000 (1,2,0)
*BR=.1001 (.1,500,0)
*NR=1 (.1,5,0)
*VAR=100 (0,1.0000E3,0)
*IKR=10.000E-3 (10.000E-3,20,0)
*ISC=1.0000E-15 (0,1,0)
*NC=2 (1,3,0)
*NK=.5 (.1,5,0)
*RE=0 (0,100.00E3,0)
*RB=0 (0,100.00E3,0)
*RC=0 (0,100.00E3,0)
*CJE=2.0000E-12 (0,1,0)
*VJE=.75 (.35,1.5000,0)
*MJE=.33 (.1,1,0)
*CJC=17.004E-12 (0,1,0)
*VJC=.75 (.35,1.5000,0)
*MJC=.33333 (.1,1,0)
*FC=.5 (.1,1.5000,0)
*TF=1.6833E-9 (0,1,0)
*XTF=10 (0,100.00E3,0)
*VTF=10 (0,100.00E3,0)
*ITF=1 (0,100.00E3,0)
*PTF=0 (0,360,0)
*TR=10.000E-9 (0,1,0)
*EG=1.1100 (.69,5,0)
*XTB=0 (0,100.00E3,0)
*XTI=3 (.1,100.00E3,0)
*EndParam

*DEVICE=Q2SA1015,PNP

* Q2SA1015 PNP model
* created using Parts release 6.3a on 09/14/96 at 20:46
* Parts is a MicroSim product.
.MODEL Q2SA1015 PNP
+ IS=772.31E-21
+ BF=155
+ VAF=100
+ IKF=10.000E-3
+ BR=.1001
+ VAR=100
+ IKR=10.000E-3
+ ISC=1.0000E-15
+ CJE=2.0000E-12
+ CJC=17.004E-12
+ MJC=.33333
+ TF=1.6833E-9
+ XTF=10
+ VTF=10
+ ITF=1
+ TR=10.000E-9
*$
*BeginSpec
*JV: Vbe=-.7 Vce=.2 Ib=-10.00E-3 Ib%=10
*OA: Vce=-5
*FB: (-2.000E-3,235) Vce=-6
*VV: (-10.00E-3,-.2) Ic/Ib=10
*CB: (-10,4.000E-12)
*EB:
*ST: Ic/Ib=10
*GB: (-1.000E-3,80.00E6) Vce=-10
*EndSpec

*BeginTrace
*JV: 0,1,-100.0E-6,-.1,1,3,0,0,-1 (27)
*OA: 1,1,-100.0E-6,-.1,1,3,0,0,-1 (27)
*FB: 0,1,-100.0E-6,-.1,1,3,0,0,-1 (27)
*VV: 0,1,-100.0E-6,-.1,1,3,0,0,-1 (27)
*CB: 0,1,-.1,-100,1,3,0,0,-1 (27)
*EB: 0,1,-.1,-10,1,3,0,0,-1 (27)
*ST: 0,1,-100.0E-6,-.1,1,3,0,0,-1 (27)
*GB: 0,1,-100.0E-6,-.1,1,3,0,0,-1 (27)
*EndTrace

*BeginParam
*IS=772.31E-21 (10.000E-21,1.0000E-6,0)
*BF=235 (1,1.5000E3,0)
*NF=1 (.8,1.2000,0)
*VAF=100 (0,1.0000E3,0)
*IKF=10.000E-3 (10.000E-3,20,0)
*ISE=0 (0,1,0)
*NE=1.5000 (1,2,0)
*BR=.1001 (.1,500,0)
*NR=1 (.1,5,0)
*VAR=100 (0,1.0000E3,0)
*IKR=10.000E-3 (10.000E-3,20,0)
*ISC=1.0000E-15 (0,1,0)
*NC=2 (1,3,0)
*NK=.5 (.1,5,0)
*RE=0 (0,100.00E3,0)
*RB=0 (0,100.00E3,0)
*RC=0 (0,100.00E3,0)
*CJE=2.0000E-12 (0,1,0)
*VJE=.75 (.35,1.5000,0)
*MJE=.33 (.1,1,0)
*CJC=9.7165E-12 (0,1,0)
*VJC=.75 (.35,1.5000,0)
*MJC=.33333 (.1,1,0)
*FC=.5 (.1,1.5000,0)
*TF=1.7700E-9 (0,1,0)
*XTF=10 (0,100.00E3,0)
*VTF=10 (0,100.00E3,0)
*ITF=1 (0,100.00E3,0)
*PTF=0 (0,360,0)
*TR=10.000E-9 (0,1,0)
*EG=1.1100 (.69,5,0)
*XTB=0 (0,100.00E3,0)
*XTI=3 (.1,100.00E3,0)
*EndParam

*DEVICE=Q2SA1162,PNP

* Q2SA1162 PNP model
* created using Parts release 6.3a on 09/14/96 at 20:59
* Parts is a MicroSim product.
.MODEL Q2SA1162 PNP
+ IS=772.31E-21
+ BF=235
+ VAF=100
+ IKF=10.000E-3
+ BR=.1001
+ VAR=100
+ IKR=10.000E-3
+ ISC=1.0000E-15
+ CJE=2.0000E-12
+ CJC=9.7165E-12
+ MJC=.33333
+ TF=1.7700E-9
+ XTF=10
+ VTF=10
+ ITF=1
+ TR=10.000E-9
*$
*BeginSpec
*JV: Vbe=-.7 Vce=-.2 Ib=-.15 Ib%=10
*OA: Vce=5
*FB: (-1,155) Vce=-1
*VV: (-3,-.2) Ic/Ib=10
*CB: (-10,170.0E-12)
*EB:
*ST: Ic/Ib=10
*GB: (-1,60.00E6) Vce=-4
*EndSpec

*BeginTrace
*JV: 0,1,-100.0E-6,-.1,1,3,0,0,-1 (27)
*OA: 1,1,-100.0E-6,-.1,1,3,0,0,-1 (27)
*FB: 0,1,-100.0E-6,-.1,1,3,0,0,-1 (27)
*VV: 0,1,-100.0E-6,-.1,1,3,0,0,-1 (27)
*CB: 0,1,-.1,-100,1,3,0,0,-1 (27)
*EB: 0,1,-.1,-10,1,3,0,0,-1 (27)
*ST: 0,1,-100.0E-6,-.1,1,3,0,0,-1 (27)
*GB: 0,1,-100.0E-6,-.1,1,3,0,0,-1 (27)
*EndTrace

*BeginParam
*IS=60.314E-12 (10.000E-21,1.0000E-6,0)
*BF=155 (1,1.5000E3,0)
*NF=1 (.8,1.2000,0)
*VAF=100 (0,1.0000E3,0)
*IKF=10.000E-3 (10.000E-3,20,0)
*ISE=0 (0,1,0)
*NE=1.5000 (1,2,0)
*BR=2 (.1,500,0)
*NR=1 (.1,5,0)
*VAR=100 (0,1.0000E3,0)
*IKR=10.000E-3 (10.000E-3,20,0)
*ISC=60.314E-12 (0,1,0)
*NC=2 (1,3,0)
*NK=.5 (.1,5,0)
*RE=0 (0,100.00E3,0)
*RB=0 (0,100.00E3,0)
*RC=0 (0,100.00E3,0)
*CJE=2.0000E-12 (0,1,0)
*VJE=.75 (.35,1.5000,0)
*MJE=.33 (.1,1,0)
*CJC=412.95E-12 (0,1,0)
*VJC=.75 (.35,1.5000,0)
*MJC=.33333 (.1,1,0)
*FC=.5 (.1,1.5000,0)
*TF=289.19E-12 (0,1,0)
*XTF=10 (0,100.00E3,0)
*VTF=10 (0,100.00E3,0)
*ITF=1 (0,100.00E3,0)
*PTF=0 (0,360,0)
*TR=10.000E-9 (0,1,0)
*EG=1.1100 (.69,5,0)
*XTB=0 (0,100.00E3,0)
*XTI=3 (.1,100.00E3,0)
*EndParam

*DEVICE=Q2SA1244,PNP

* Q2SA1244 PNP model
* created using Parts release 6.3a on 09/14/96 at 21:05
* Parts is a MicroSim product.
.MODEL Q2SA1244 PNP
+ IS=60.314E-12
+ BF=155
+ VAF=100
+ IKF=10.000E-3
+ BR=2
+ VAR=100
+ IKR=10.000E-3
+ ISC=60.314E-12
+ CJE=2.0000E-12
+ CJC=412.95E-12
+ MJC=.33333
+ TF=289.19E-12
+ XTF=10
+ VTF=10
+ ITF=1
+ TR=10.000E-9
*$
*BeginSpec
*JV: Vbe=-1 Vce=-1.500 Ib=-1 Ib%=10
*OA: Vce=-5
*FB: (-1.000E-3,107.5) Vce=-1.500
*VV: (-10,-1.500) Ic/Ib=10
*CB: (-10,25.00E-12)
*EB:
*ST: Ic/Ib=10
*GB: (-1,25.00E6) Vce=-5
*EndSpec

*BeginTrace
*JV: 0,1,-100.0E-6,-.1,1,3,0,0,-1 (27)
*OA: 1,1,-100.0E-6,-.1,1,3,0,0,-1 (27)
*FB: 0,1,-100.0E-6,-.1,1,3,0,0,-1 (27)
*VV: 0,1,-100.0E-6,-.1,1,3,0,0,-1 (27)
*CB: 0,1,-.1,-100,1,3,0,0,-1 (27)
*EB: 0,1,-.1,-10,1,3,0,0,-1 (27)
*ST: 0,1,-100.0E-6,-.1,1,3,0,0,-1 (27)
*GB: 0,1,-100.0E-6,-.1,1,3,0,0,-1 (27)
*EndTrace

*BeginParam
*IS=10.000E-15 (10.000E-21,1.0000E-6,0)
*BF=107.50 (1,1.5000E3,0)
*NF=1 (.8,1.2000,0)
*VAF=100 (0,1.0000E3,0)
*IKF=10.000E-3 (10.000E-3,20,0)
*ISE=0 (0,1,0)
*NE=1.5000 (1,2,0)
*BR=2 (.1,500,0)
*NR=1 (.1,5,0)
*VAR=100 (0,1.0000E3,0)
*IKR=10.000E-3 (10.000E-3,20,0)
*ISC=10.000E-15 (0,1,0)
*NC=2 (1,3,0)
*NK=.5 (.1,5,0)
*RE=0 (0,100.00E3,0)
*RB=0 (0,100.00E3,0)
*RC=0 (0,100.00E3,0)
*CJE=2.0000E-12 (0,1,0)
*VJE=.75 (.35,1.5000,0)
*MJE=.33 (.1,1,0)
*CJC=60.728E-12 (0,1,0)
*VJC=.75 (.35,1.5000,0)
*MJC=.33333 (.1,1,0)
*FC=.5 (.1,1.5000,0)
*TF=730.99E-12 (0,1,0)
*XTF=10 (0,100.00E3,0)
*VTF=10 (0,100.00E3,0)
*ITF=1 (0,100.00E3,0)
*PTF=0 (0,360,0)
*TR=10.000E-9 (0,1,0)
*EG=1.1100 (.69,5,0)
*XTB=0 (0,100.00E3,0)
*XTI=3 (.1,100.00E3,0)
*EndParam

*DEVICE=Q2SA1302,PNP

* Q2SA1302 PNP model
* created using Parts release 6.3a on 09/14/96 at 21:13
* Parts is a MicroSim product.
.MODEL Q2SA1302 PNP
+ IS=10.000E-15
+ BF=107.50
+ VAF=100
+ IKF=10.000E-3
+ BR=2
+ VAR=100
+ IKR=10.000E-3
+ ISC=10.000E-15
+ CJE=2.0000E-12
+ CJC=60.728E-12
+ MJC=.33333
+ TF=730.99E-12
+ XTF=10
+ VTF=10
+ ITF=1
+ TR=10.000E-9
*$
*BeginSpec
*JV: Vbe=-1 Vce=-1.500 Ib=-50.00E-3 Ib%=10
*OA: Vce=10
*FB: (-.1,155) Vce=-5
*VV: (-.5,-1.500) Ic/Ib=10
*CB: (-10,30.00E-12)
*EB:
*ST: Ic/Ib=10
*GB: (-.1,100.0E6) Vce=-10
*EndSpec

*BeginTrace
*JV: 0,1,-100.0E-6,-.1,1,3,0,0,-1 (27)
*OA: 1,1,-100.0E-6,-.1,1,3,0,0,-1 (27)
*FB: 0,1,-100.0E-6,-.1,1,3,0,0,-1 (27)
*VV: 0,1,-100.0E-6,-.1,1,3,0,0,-1 (27)
*CB: 0,1,-.1,-100,1,3,0,0,-1 (27)
*EB: 0,1,-.1,-10,1,3,0,0,-1 (27)
*ST: 0,1,-100.0E-6,-.1,1,3,0,0,-1 (27)
*GB: 0,1,-100.0E-6,-.1,1,3,0,0,-1 (27)
*EndTrace

*BeginParam
*IS=10.000E-15 (10.000E-21,1.0000E-6,0)
*BF=155 (1,1.5000E3,0)
*NF=1 (.8,1.2000,0)
*VAF=100 (0,1.0000E3,0)
*IKF=10.000E-3 (10.000E-3,20,0)
*ISE=0 (0,1,0)
*NE=1.5000 (1,2,0)
*BR=2 (.1,500,0)
*NR=1 (.1,5,0)
*VAR=100 (0,1.0000E3,0)
*IKR=10.000E-3 (10.000E-3,20,0)
*ISC=10.000E-15 (0,1,0)
*NC=2 (1,3,0)
*NK=.5 (.1,5,0)
*RE=0 (0,100.00E3,0)
*RB=0 (0,100.00E3,0)
*RC=0 (0,100.00E3,0)
*CJE=2.0000E-12 (0,1,0)
*VJE=.75 (.35,1.5000,0)
*MJE=.33 (.1,1,0)
*CJC=72.874E-12 (0,1,0)
*VJC=.75 (.35,1.5000,0)
*MJC=.33333 (.1,1,0)
*FC=.5 (.1,1.5000,0)
*TF=338.85E-12 (0,1,0)
*XTF=10 (0,100.00E3,0)
*VTF=10 (0,100.00E3,0)
*ITF=1 (0,100.00E3,0)
*PTF=0 (0,360,0)
*TR=10.000E-9 (0,1,0)
*EG=1.1100 (.69,5,0)
*XTB=0 (0,100.00E3,0)
*XTI=3 (.1,100.00E3,0)
*EndParam

*DEVICE=Q2SA1306B,PNP

* Q2SA1306B PNP model
* created using Parts release 6.3a on 09/14/96 at 21:19
* Parts is a MicroSim product.
.MODEL Q2SA1306B PNP
+ IS=10.000E-15
+ BF=155
+ VAF=100
+ IKF=10.000E-3
+ BR=2
+ VAR=100
+ IKR=10.000E-3
+ ISC=10.000E-15
+ CJE=2.0000E-12
+ CJC=72.874E-12
+ MJC=.33333
+ TF=338.85E-12
+ XTF=10
+ VTF=10
+ ITF=1
+ TR=10.000E-9
*$
*BeginSpec
*JV: Vbe=-1 Vce=-1.500 Ib=-.8 Ib%=10
*OA: Vce=-10
*FB: (-7.000E-3,60) Vce=-5
*VV: (-8,-1.500) Ic/Ib=10
*CB: (-10,470.0E-12)
*EB:
*ST: Ic/Ib=10
*GB: (-1,25.00E6) Vce=-5
*EndSpec

*BeginTrace
*JV: 0,1,-100.0E-6,-.1,1,3,0,0,-1 (27)
*OA: 1,1,-100.0E-6,-.1,1,3,0,0,-1 (27)
*FB: 0,1,-100.0E-6,-.1,1,3,0,0,-1 (27)
*VV: 0,1,-100.0E-6,-.1,1,3,0,0,-1 (27)
*CB: 0,1,-.1,-100,1,3,0,0,-1 (27)
*EB: 0,1,-.1,-10,1,3,0,0,-1 (27)
*ST: 0,1,-100.0E-6,-.1,1,3,0,0,-1 (27)
*GB: 0,1,-100.0E-6,-.1,1,3,0,0,-1 (27)
*EndTrace

*BeginParam
*IS=10.000E-15 (10.000E-21,1.0000E-6,0)
*BF=60 (1,1.5000E3,0)
*NF=1 (.8,1.2000,0)
*VAF=100 (0,1.0000E3,0)
*IKF=10.000E-3 (10.000E-3,20,0)
*ISE=0 (0,1,0)
*NE=1.5000 (1,2,0)
*BR=2 (.1,500,0)
*NR=1 (.1,5,0)
*VAR=100 (0,1.0000E3,0)
*IKR=10.000E-3 (10.000E-3,20,0)
*ISC=10.000E-15 (0,1,0)
*NC=2 (1,3,0)
*NK=.5 (.1,5,0)
*RE=0 (0,100.00E3,0)
*RB=0 (0,100.00E3,0)
*RC=0 (0,100.00E3,0)
*CJE=2.0000E-12 (0,1,0)
*VJE=.75 (.35,1.5000,0)
*MJE=.33 (.1,1,0)
*CJC=1.1417E-9 (0,1,0)
*VJC=.75 (.35,1.5000,0)
*MJC=.33333 (.1,1,0)
*FC=.5 (.1,1.5000,0)
*TF=727.54E-12 (0,1,0)
*XTF=10 (0,100.00E3,0)
*VTF=10 (0,100.00E3,0)
*ITF=1 (0,100.00E3,0)
*PTF=0 (0,360,0)
*TR=10.000E-9 (0,1,0)
*EG=1.1100 (.69,5,0)
*XTB=0 (0,100.00E3,0)
*XTI=3 (.1,100.00E3,0)
*EndParam

*DEVICE=Q2SA1553,PNP

* Q2SA1553 PNP model
* created using Parts release 6.3a on 09/14/96 at 21:26
* Parts is a MicroSim product.
.MODEL Q2SA1553 PNP
+ IS=10.000E-15
+ BF=60
+ VAF=100
+ IKF=10.000E-3
+ BR=2
+ VAR=100
+ IKR=10.000E-3
+ ISC=10.000E-15
+ CJE=2.0000E-12
+ CJC=1.1417E-9
+ MJC=.33333
+ TF=727.54E-12
+ XTF=10
+ VTF=10
+ ITF=1
+ TR=10.000E-9
*$
*BeginSpec
*JV: Vbe=-1 Vce=-1.500 Ib=-50.00E-3 Ib%=10
*OA: Vce=10
*FB: (-1.000E-3,210) Vce=-5
*VV: (-.5,-1.500) Ic/Ib=10
*CB: (-10,30.00E-12)
*EB:
*ST: Ic/Ib=10
*GB: (-.1,70.00E6) Vce=-10
*EndSpec

*BeginTrace
*JV: 0,1,-100.0E-6,-.1,1,3,0,0,-1 (27)
*OA: 1,1,-100.0E-6,-.1,1,3,0,0,-1 (27)
*FB: 0,1,-100.0E-6,-.1,1,3,0,0,-1 (27)
*VV: 0,1,-100.0E-6,-.1,1,3,0,0,-1 (27)
*CB: 0,1,-.1,-100,1,3,0,0,-1 (27)
*EB: 0,1,-.1,-10,1,3,0,0,-1 (27)
*ST: 0,1,-100.0E-6,-.1,1,3,0,0,-1 (27)
*GB: 0,1,-100.0E-6,-.1,1,3,0,0,-1 (27)
*EndTrace

*BeginParam
*IS=10.000E-21 (10.000E-21,1.0000E-6,0)
*BF=210 (1,1.5000E3,0)
*NF=1 (.8,1.2000,0)
*VAF=100 (0,1.0000E3,0)
*IKF=10.000E-3 (10.000E-3,20,0)
*ISE=0 (0,1,0)
*NE=1.5000 (1,2,0)
*BR=2 (.1,500,0)
*NR=1 (.1,5,0)
*VAR=100 (0,1.0000E3,0)
*IKR=10.000E-3 (10.000E-3,20,0)
*ISC=1.0000E-15 (0,1,0)
*NC=2 (1,3,0)
*NK=.5 (.1,5,0)
*RE=0 (0,100.00E3,0)
*RB=0 (0,100.00E3,0)
*RC=0 (0,100.00E3,0)
*CJE=2.0000E-12 (0,1,0)
*VJE=.75 (.35,1.5000,0)
*MJE=.33 (.1,1,0)
*CJC=72.874E-12 (0,1,0)
*VJC=.75 (.35,1.5000,0)
*MJC=.33333 (.1,1,0)
*FC=.5 (.1,1.5000,0)
*TF=476.11E-12 (0,1,0)
*XTF=10 (0,100.00E3,0)
*VTF=10 (0,100.00E3,0)
*ITF=1 (0,100.00E3,0)
*PTF=0 (0,360,0)
*TR=10.000E-9 (0,1,0)
*EG=1.1100 (.69,5,0)
*XTB=0 (0,100.00E3,0)
*XTI=3 (.1,100.00E3,0)
*EndParam

*DEVICE=Q2SA1837,PNP

* Q2SA1837 PNP model
* created using Parts release 6.3a on 09/14/96 at 21:37
* Parts is a MicroSim product.
.MODEL Q2SA1837 PNP
+ IS=10.000E-21
+ BF=210
+ VAF=100
+ IKF=10.000E-3
+ BR=2
+ VAR=100
+ IKR=10.000E-3
+ ISC=1.0000E-15
+ CJE=2.0000E-12
+ CJC=72.874E-12
+ MJC=.33333
+ TF=476.11E-12
+ XTF=10
+ VTF=10
+ ITF=1
+ TR=10.000E-9
*$
*BeginSpec
*JV: Vbe=-1 Vce=-1 Ib=-.3 Ib%=10
*OA: Vce=-10
*FB: (-500.0E-6,130) Vce=-5
*VV: (-3,-1) Ic/Ib=10
*CB: (-10,150.0E-12)
*EB:
*ST: Ic/Ib=10
*GB: (-.5,9.000E6) Vce=-5
*EndSpec

*BeginTrace
*JV: 0,1,-100.0E-6,-.1,1,3,0,0,-1 (27)
*OA: 1,1,-100.0E-6,-.1,1,3,0,0,-1 (27)
*FB: 0,1,-100.0E-6,-.1,1,3,0,0,-1 (27)
*VV: 0,1,-100.0E-6,-.1,1,3,0,0,-1 (27)
*CB: 0,1,-.1,-100,1,3,0,0,-1 (27)
*EB: 0,1,-.1,-10,1,3,0,0,-1 (27)
*ST: 0,1,-100.0E-6,-.1,1,3,0,0,-1 (27)
*GB: 0,1,-100.0E-6,-.1,1,3,0,0,-1 (27)
*EndTrace

*BeginParam
*IS=10.000E-21 (10.000E-21,1.0000E-6,0)
*BF=130 (1,1.5000E3,0)
*NF=1 (.8,1.2000,0)
*VAF=100 (0,1.0000E3,0)
*IKF=10.000E-3 (10.000E-3,20,0)
*ISE=0 (0,1,0)
*NE=1.5000 (1,2,0)
*BR=2 (.1,500,0)
*NR=1 (.1,5,0)
*VAR=100 (0,1.0000E3,0)
*IKR=10.000E-3 (10.000E-3,20,0)
*ISC=1.0000E-15 (0,1,0)
*NC=2 (1,3,0)
*NK=.5 (.1,5,0)
*RE=0 (0,100.00E3,0)
*RB=0 (0,100.00E3,0)
*RC=0 (0,100.00E3,0)
*CJE=2.0000E-12 (0,1,0)
*VJE=.75 (.35,1.5000,0)
*MJE=.33 (.1,1,0)
*CJC=364.37E-12 (0,1,0)
*VJC=.75 (.35,1.5000,0)
*MJC=.33333 (.1,1,0)
*FC=.5 (.1,1.5000,0)
*TF=1.9084E-9 (0,1,0)
*XTF=10 (0,100.00E3,0)
*VTF=10 (0,100.00E3,0)
*ITF=1 (0,100.00E3,0)
*PTF=0 (0,360,0)
*TR=10.000E-9 (0,1,0)
*EG=1.1100 (.69,5,0)
*XTB=0 (0,100.00E3,0)
*XTI=3 (.1,100.00E3,0)
*EndParam

*DEVICE=Q2SB906,PNP

* Q2SB906 PNP model
* created using Parts release 6.3a on 09/14/96 at 21:44
* Parts is a MicroSim product.
.MODEL Q2SB906 PNP
+ IS=10.000E-21
+ BF=130
+ VAF=100
+ IKF=10.000E-3
+ BR=2
+ VAR=100
+ IKR=10.000E-3
+ ISC=1.0000E-15
+ CJE=2.0000E-12
+ CJC=364.37E-12
+ MJC=.33333
+ TF=1.9084E-9
+ XTF=10
+ VTF=10
+ ITF=1
+ TR=10.000E-9
*$
*BeginSpec
*JV: Vbe=-.75 Vce=-1 Ib=-.2 Ib%=10
*OA: Vce=10
*FB: (-500.0E-6,210) Vce=-5
*VV: (-2,-1) Ic/Ib=10
*CB: (-10,50.00E-12)
*EB:
*ST: Ic/Ib=10
*GB: (-.5,9.000E6) Vce=-5
*EndSpec

*BeginTrace
*JV: 0,1,100.0E-6,.1,1,3,0,0,-1 (27)
*OA: 1,1,100.0E-6,.1,1,3,0,0,-1 (27)
*FB: 0,1,100.0E-6,.1,1,3,0,0,-1 (27)
*VV: 0,1,100.0E-6,.1,1,3,0,0,-1 (27)
*CB: 0,1,.1,100,1,3,0,0,-1 (27)
*EB: 0,1,.1,10,1,3,0,0,-1 (27)
*ST: 0,1,100.0E-6,.1,1,3,0,0,-1 (27)
*GB: 0,1,100.0E-6,.1,1,3,0,0,-1 (27)
*EndTrace

*BeginParam
*IS=10.000E-15 (10.000E-21,1.0000E-6,0)
*BF=210 (1,1.5000E3,0)
*NF=1 (.8,1.2000,0)
*VAF=100 (0,1.0000E3,0)
*IKF=10.000E-3 (10.000E-3,20,0)
*ISE=0 (0,1,0)
*NE=1.5000 (1,2,0)
*BR=2 (.1,500,0)
*NR=1 (.1,5,0)
*VAR=100 (0,1.0000E3,0)
*IKR=10.000E-3 (10.000E-3,20,0)
*ISC=10.000E-15 (0,1,0)
*NC=2 (1,3,0)
*NK=.5 (.1,5,0)
*RE=0 (0,100.00E3,0)
*RB=0 (0,100.00E3,0)
*RC=0 (0,100.00E3,0)
*CJE=2.0000E-12 (0,1,0)
*VJE=.75 (.35,1.5000,0)
*MJE=.33 (.1,1,0)
*CJC=121.46E-12 (0,1,0)
*VJC=.75 (.35,1.5000,0)
*MJC=.33333 (.1,1,0)
*FC=.5 (.1,1.5000,0)
*TF=1.9526E-9 (0,1,0)
*XTF=10 (0,100.00E3,0)
*VTF=10 (0,100.00E3,0)
*ITF=1 (0,100.00E3,0)
*PTF=0 (0,360,0)
*TR=10.000E-9 (0,1,0)
*EG=1.1100 (.69,5,0)
*XTB=0 (0,100.00E3,0)
*XTI=3 (.1,100.00E3,0)
*EndParam

*DEVICE=Q2SB1375,PNP

* Q2SB1375 PNP model
* created using Parts release 6.3a on 09/14/96 at 22:02
* Parts is a MicroSim product.
.MODEL Q2SB1375 PNP
+ IS=10.000E-15
+ BF=210
+ VAF=100
+ IKF=10.000E-3
+ BR=2
+ VAR=100
+ IKR=10.000E-3
+ ISC=10.000E-15
+ CJE=2.0000E-12
+ CJC=121.46E-12
+ MJC=.33333
+ TF=1.9526E-9
+ XTF=10
+ VTF=10
+ ITF=1
+ TR=10.000E-9
*$
*BeginSpec
*JV: Vbe=-1.500 Vce=-3 Ib=-.8 Ib%=10
*OA: Vce=-10
*FB: (-2.500E-3,8.250E3) Vce=-3
*VV: (-2.500,-1.100) Ic/Ib=10
*CB:
*EB:
*ST: Ic/Ib=10
*GB: Vce=5
*EndSpec

*BeginTrace
*JV: 0,1,-100.0E-6,-.1,1,3,0,0,-1 (27)
*OA: 1,1,-100.0E-6,-.1,1,3,0,0,-1 (27)
*FB: 0,1,-100.0E-6,-.1,1,3,0,0,-1 (27)
*VV: 0,1,-100.0E-6,-.1,1,3,0,0,-1 (27)
*CB: 0,1,-.1,-100,1,3,0,0,-1 (27)
*EB: 0,1,-.1,-10,1,3,0,0,-1 (27)
*ST: 0,1,-100.0E-6,-.1,1,3,0,0,-1 (27)
*GB: 0,1,-100.0E-6,-.1,1,3,0,0,-1 (27)
*EndTrace

*BeginParam
*IS=881.11E-18 (10.000E-21,1.0000E-6,0)
*BF=1.4985E3 (1,1.5000E3,0)
*NF=1 (.8,1.2000,0)
*VAF=100 (0,1.0000E3,0)
*IKF=10.000E-3 (10.000E-3,20,0)
*ISE=0 (0,1,0)
*NE=1.5000 (1,2,0)
*BR=2 (.1,500,0)
*NR=1 (.1,5,0)
*VAR=100 (0,1.0000E3,0)
*IKR=10.000E-3 (10.000E-3,20,0)
*ISC=1.0000E-15 (0,1,0)
*NC=2 (1,3,0)
*NK=.5 (.1,5,0)
*RE=0 (0,100.00E3,0)
*RB=0 (0,100.00E3,0)
*RC=0 (0,100.00E3,0)
*CJE=2.0000E-12 (0,1,0)
*VJE=.75 (.35,1.5000,0)
*MJE=.33 (.1,1,0)
*CJC=2.0000E-12 (0,1,0)
*VJC=.75 (.35,1.5000,0)
*MJC=.33 (.1,1,0)
*FC=.5 (.1,1.5000,0)
*TF=10.000E-9 (0,1,0)
*XTF=10 (0,100.00E3,0)
*VTF=10 (0,100.00E3,0)
*ITF=1 (0,100.00E3,0)
*PTF=0 (0,360,0)
*TR=10.000E-9 (0,1,0)
*EG=1.1100 (.69,5,0)
*XTB=0 (0,100.00E3,0)
*XTI=3 (.1,100.00E3,0)
*EndParam

*DEVICE=Q2SB1381,PNP

* Q2SB1381 PNP model
* created using Parts release 6.3a on 09/14/96 at 22:11
* Parts is a MicroSim product.
.MODEL Q2SB1381 PNP
+ IS=881.11E-18
+ BF=1.4985E3
+ VAF=100
+ IKF=10.000E-3
+ BR=2
+ VAR=100
+ IKR=10.000E-3
+ ISC=1.0000E-15
+ CJE=2.0000E-12
+ CJC=2.0000E-12
+ TF=10.000E-9
+ XTF=10
+ VTF=10
+ ITF=1
+ TR=10.000E-9
*$
*BeginSpec
*JV: Vbe=-1.500 Vce=-3 Ib=-.8 Ib%=10
*OA: Vce=10
*FB: (-1,100) Vce=-5
*VV: (-8,-3) Ic/Ib=10
*CB: (-10,340.0E-12)
*EB:
*ST: Ic/Ib=10
*GB: (-1,10.00E6) Vce=-5
*EndSpec

*BeginTrace
*JV: 0,1,-100.0E-6,-.1,1,3,0,0,-1 (27)
*OA: 1,1,-100.0E-6,-.1,1,3,0,0,-1 (27)
*FB: 0,1,-100.0E-6,-.1,1,3,0,0,-1 (27)
*VV: 0,1,-100.0E-6,-.1,1,3,0,0,-1 (27)
*CB: 0,1,-.1,-100,1,3,0,0,-1 (27)
*EB: 0,1,-.1,-10,1,3,0,0,-1 (27)
*ST: 0,1,-100.0E-6,-.1,1,3,0,0,-1 (27)
*GB: 0,1,-100.0E-6,-.1,1,3,0,0,-1 (27)
*EndTrace

*BeginParam
*IS=10.000E-15 (10.000E-21,1.0000E-6,0)
*BF=100 (1,1.5000E3,0)
*NF=1 (.8,1.2000,0)
*VAF=100 (0,1.0000E3,0)
*IKF=10.000E-3 (10.000E-3,20,0)
*ISE=0 (0,1,0)
*NE=1.5000 (1,2,0)
*BR=2 (.1,500,0)
*NR=1 (.1,5,0)
*VAR=100 (0,1.0000E3,0)
*IKR=10.000E-3 (10.000E-3,20,0)
*ISC=10.000E-15 (0,1,0)
*NC=2 (1,3,0)
*NK=.5 (.1,5,0)
*RE=0 (0,100.00E3,0)
*RB=0 (0,100.00E3,0)
*RC=0 (0,100.00E3,0)
*CJE=2.0000E-12 (0,1,0)
*VJE=.75 (.35,1.5000,0)
*MJE=.33 (.1,1,0)
*CJC=825.90E-12 (0,1,0)
*VJC=.75 (.35,1.5000,0)
*MJC=.33333 (.1,1,0)
*FC=.5 (.1,1.5000,0)
*TF=1.8254E-9 (0,1,0)
*XTF=10 (0,100.00E3,0)
*VTF=10 (0,100.00E3,0)
*ITF=1 (0,100.00E3,0)
*PTF=0 (0,360,0)
*TR=10.000E-9 (0,1,0)
*EG=1.1100 (.69,5,0)
*XTB=0 (0,100.00E3,0)
*XTI=3 (.1,100.00E3,0)
*EndParam

*DEVICE=Q2SB1429,PNP

* Q2SB1429 PNP model
* created using Parts release 6.3a on 09/14/96 at 22:18
* Parts is a MicroSim product.
.MODEL Q2SB1429 PNP
+ IS=10.000E-15
+ VAF=100
+ IKF=10.000E-3
+ BR=2
+ VAR=100
+ IKR=10.000E-3
+ ISC=10.000E-15
+ CJE=2.0000E-12
+ CJC=825.90E-12
+ MJC=.33333
+ TF=1.8254E-9
+ XTF=10
+ VTF=10
+ ITF=1
+ TR=10.000E-9
*$
*BeginSpec
*JV: Vbe=-1.300 Vce=-.4 Ib=-15.00E-3 Ib%=10
*OA: Vce=10
*FB: (-.15,200) Vce=-10
*VV: (-.15,-.4) Ic/Ib=10
*CB: (-10,8.000E-12)
*EB: (-2,30.00E-12)
*ST: Ic/Ib=10
*GB: (-50.00E-3,200.0E6) Vce=-10
*EndSpec

*BeginTrace
*JV: 0,1,-100.0E-6,-.1,1,3,0,0,-1 (27)
*OA: 1,1,-100.0E-6,-.1,1,3,0,0,-1 (27)
*FB: 0,1,-100.0E-6,-.1,1,3,0,0,-1 (27)
*VV: 0,1,-100.0E-6,-.1,1,3,0,0,-1 (27)
*CB: 0,1,-.1,-100,1,3,0,0,-1 (27)
*EB: 0,1,-.1,-10,1,3,0,0,-1 (27)
*ST: 0,1,-100.0E-6,-.1,1,3,0,0,-1 (27)
*GB: 0,1,-100.0E-6,-.1,1,3,0,0,-1 (27)
*EndTrace

*BeginParam
*IS=1.1585E-18 (10.000E-21,1.0000E-6,0)
*BF=200 (1,1.5000E3,0)
*NF=1 (.8,1.2000,0)
*VAF=100 (0,1.0000E3,0)
*IKF=10.000E-3 (10.000E-3,20,0)
*ISE=0 (0,1,0)
*NE=1.5000 (1,2,0)
*BR=.1001 (.1,500,0)
*NR=1 (.1,5,0)
*VAR=100 (0,1.0000E3,0)
*IKR=10.000E-3 (10.000E-3,20,0)
*ISC=1.0000E-15 (0,1,0)
*NC=2 (1,3,0)
*NK=.5 (.1,5,0)
*RE=0 (0,100.00E3,0)
*RB=0 (0,100.00E3,0)
*RC=0 (0,100.00E3,0)
*CJE=46.261E-12 (0,1,0)
*VJE=.75 (.35,1.5000,0)
*MJE=.33333 (.1,1,0)
*CJC=19.433E-12 (0,1,0)
*VJC=.75 (.35,1.5000,0)
*MJC=.33333 (.1,1,0)
*FC=.5 (.1,1.5000,0)
*TF=375.70E-12 (0,1,0)
*XTF=10 (0,100.00E3,0)
*VTF=10 (0,100.00E3,0)
*ITF=1 (0,100.00E3,0)
*PTF=0 (0,360,0)
*TR=10.000E-9 (0,1,0)
*EG=1.1100 (.69,5,0)
*XTB=0 (0,100.00E3,0)
*XTI=3 (.1,100.00E3,0)
*EndParam

*DEVICE=MPS2907,PNP

* MPS2907 PNP model
* created using Parts release 6.3a on 09/14/96 at 22:40
* Parts is a MicroSim product.
.MODEL MPS2907 PNP
+ IS=1.1585E-18
+ BF=200
+ VAF=100
+ IKF=10.000E-3
+ BR=.1001
+ VAR=100
+ IKR=10.000E-3
+ ISC=1.0000E-15
+ CJE=46.261E-12
+ MJE=.33333
+ CJC=19.433E-12
+ MJC=.33333
+ TF=375.70E-12
+ XTF=10
+ VTF=10
+ ITF=1
+ TR=10.000E-9
*$
*BeginSpec
*JV: Vbe=-1.300 Vce=-.4 Ib=-15.00E-3 Ib%=10
*OA: Vce=10
*FB: (-.15,200) Vce=-10
*VV: (-.15,-.4) Ic/Ib=10
*CB: (-10,8.000E-12)
*EB: (-2,30.00E-12)
*ST: Ic/Ib=10
*GB: (-50.00E-3,200.0E6) Vce=-10
*EndSpec

*BeginTrace