**********************************************
*ELECTRONICS WORKBENCH MODEL FILE            *
*MODELS GENERATED BY: R. TALOS               *
*(c) 1996 INTERACTIVE IMAGE TECHNOLOGIES LTD.*
*TORONTO, ONTARIO (416)977-5550.             *
**********************************************
*BeginSpec
*JV: Vbe=1.500 Vce=1 Ib=2 Ib%=10
*OA: Vce=-5
*FB: Vce=5
*VV: Ic/Ib=10
*CB:
*EB:
*ST: Ic/Ib=10
*GB: Vce=1
*EndSpec

*BeginTrace
*JV: 0,1,100.0E-6,.1,1,3,0,0,-1 (27)
*OA: 1,1,100.0E-6,.1,1,3,0,0,-1 (27)
*FB: 0,1,100.0E-6,.1,1,3,0,0,-1 (27)
*VV: 0,1,100.0E-6,.1,1,3,0,0,-1 (27)
*CB: 0,1,.1,100,1,3,0,0,-1 (27)
*EB: 0,1,.1,10,1,3,0,0,-1 (27)
*ST: 0,1,100.0E-6,.1,1,3,0,0,-1 (27)
*GB: 0,1,100.0E-6,.1,1,3,0,0,-1 (27)
*EndTrace

*BeginParam
*IS=804.19E-12 (10.000E-21,1.0000E-6,0)
*BF=100 (1,1.5000E3,0)
*NF=1 (.8,1.2000,0)
*VAF=100 (0,1.0000E3,0)
*IKF=10.000E-3 (10.000E-3,20,0)
*ISE=0 (0,1,0)
*NE=1.5000 (1,2,0)
*BR=1 (.1,500,0)
*NR=1 (.1,5,0)
*VAR=100 (0,1.0000E3,0)
*IKR=10.000E-3 (10.000E-3,20,0)
*ISC=0 (0,1,0)
*NC=2 (1,3,0)
*NK=.5 (.1,5,0)
*RE=0 (0,100.00E3,0)
*RB=0 (0,100.00E3,0)
*RC=0 (0,100.00E3,0)
*CJE=2.0000E-12 (0,1,0)
*VJE=.75 (.35,1.5000,0)
*MJE=.33 (.1,1,0)
*CJC=2.0000E-12 (0,1,0)
*VJC=.75 (.35,1.5000,0)
*MJC=.33 (.1,1,0)
*FC=.5 (.1,1.5000,0)
*TF=10.000E-9 (0,1,0)
*XTF=10 (0,100.00E3,0)
*VTF=10 (0,100.00E3,0)
*ITF=1 (0,100.00E3,0)
*PTF=0 (0,360,0)
*TR=10.000E-9 (0,1,0)
*EG=1.1100 (.69,5,0)
*XTB=0 (0,100.00E3,0)
*XTI=3 (.1,100.00E3,0)
*EndParam


*DEVICE=Q2SA817A,PNP

* Q2SA817A PNP model
* created using Parts release 6.3a on 10/02/96 at 07:48
* Parts is a MicroSim product.
.MODEL Q2SA817A PNP
+ IS=10.000E-15
+ BF=155
+ VAF=100
+ IKF=10.000E-3
+ BR=2
+ VAR=100
+ IKR=10.000E-3
+ ISC=10.000E-15
+ CJE=2.0000E-12
+ CJC=34.008E-12
+ MJC=.33333
+ TF=1.4378E-9
+ XTF=10
+ VTF=10
+ ITF=1
+ TR=10.000E-9
*$
*BeginSpec
*JV: Vbe=-.75 Vce=-1.500 Ib=-50.00E-3 Ib%=10
*OA: Vce=-5
*FB: (-.5,75) Vce=-10
*VV: (-.5,-1.500) Ic/Ib=10
*CB: (-10,55.00E-12)
*EB:
*ST: Ic/Ib=10
*GB: (-.5,4.000E6) Vce=-10
*EndSpec

*BeginTrace
*JV: 0,1,-100.0E-6,-.1,1,3,0,0,-1 (27)
*OA: 1,1,-100.0E-6,-.1,1,3,0,0,-1 (27)
*FB: 0,1,-100.0E-6,-.1,1,3,0,0,-1 (27)
*VV: 0,1,-100.0E-6,-.1,1,3,0,0,-1 (27)
*CB: 0,1,-.1,-100,1,3,0,0,-1 (27)
*EB: 0,1,-.1,-10,1,3,0,0,-1 (27)
*ST: 0,1,-100.0E-6,-.1,1,3,0,0,-1 (27)
*GB: 0,1,-100.0E-6,-.1,1,3,0,0,-1 (27)
*EndTrace

*BeginParam
*IS=10.000E-15 (10.000E-21,1.0000E-6,0)
*BF=75 (1,1.5000E3,0)
*NF=1 (.8,1.2000,0)
*VAF=100 (0,1.0000E3,0)
*IKF=10.000E-3 (10.000E-3,20,0)
*ISE=0 (0,1,0)
*NE=1.5000 (1,2,0)
*BR=2 (.1,500,0)
*NR=1 (.1,5,0)
*VAR=100 (0,1.0000E3,0)
*IKR=10.000E-3 (10.000E-3,20,0)
*ISC=10.000E-15 (0,1,0)
*NC=2 (1,3,0)
*NK=.5 (.1,5,0)
*RE=0 (0,100.00E3,0)
*RB=0 (0,100.00E3,0)
*RC=0 (0,100.00E3,0)
*CJE=2.0000E-12 (0,1,0)
*VJE=.75 (.35,1.5000,0)
*MJE=.33 (.1,1,0)
*CJC=133.60E-12 (0,1,0)
*VJC=.75 (.35,1.5000,0)
*MJC=.33333 (.1,1,0)
*FC=.5 (.1,1.5000,0)
*TF=5.9225E-9 (0,1,0)
*XTF=10 (0,100.00E3,0)
*VTF=10 (0,100.00E3,0)
*ITF=1 (0,100.00E3,0)
*PTF=0 (0,360,0)
*TR=10.000E-9 (0,1,0)
*EG=1.1100 (.69,5,0)
*XTB=0 (0,100.00E3,0)
*XTI=3 (.1,100.00E3,0)
*EndParam

*DEVICE=Q2SA940,PNP

* Q2SA940 PNP model
* created using Parts release 6.3a on 10/02/96 at 08:19
* Parts is a MicroSim product.
.MODEL Q2SA940 PNP
+ IS=10.000E-15
+ BF=75
+ VAF=100
+ IKF=10.000E-3
+ BR=2
+ VAR=100
+ IKR=10.000E-3
+ ISC=10.000E-15
+ CJE=2.0000E-12
+ CJC=133.60E-12
+ MJC=.33333
+ TF=5.9225E-9
+ XTF=10
+ VTF=10
+ ITF=1
+ TR=10.000E-9
*$
*BeginSpec
*JV: Vbe=-.9 Vce=-30.00E-3 Ib=-1.000E-3 Ib%=10
*OA: Vce=5
*FB: (-10.00E-3,155) Vce=-5
*VV: (-10.00E-3,-.8) Ic/Ib=10
*CB: (-10,4.000E-12)
*EB:
*ST: Ic/Ib=10
*GB: (-10.00E-3,120.0E6) Vce=-30
*EndSpec

*BeginTrace
*JV: 0,1,-100.0E-6,-.1,1,3,0,0,-1 (27)
*OA: 1,1,-100.0E-6,-.1,1,3,0,0,-1 (27)
*FB: 0,1,-100.0E-6,-.1,1,3,0,0,-1 (27)
*VV: 0,1,-100.0E-6,-.1,1,3,0,0,-1 (27)
*CB: 0,1,-.1,-100,1,3,0,0,-1 (27)
*EB: 0,1,-.1,-10,1,3,0,0,-1 (27)
*ST: 0,1,-100.0E-6,-.1,1,3,0,0,-1 (27)
*GB: 0,1,-100.0E-6,-.1,1,3,0,0,-1 (27)
*EndTrace

*BeginParam
*IS=246.34E-21 (10.000E-21,1.0000E-6,0)
*BF=155 (1,1.5000E3,0)
*NF=1 (.8,1.2000,0)
*VAF=100 (0,1.0000E3,0)
*IKF=10.000E-3 (10.000E-3,20,0)
*ISE=0 (0,1,0)
*NE=1.5000 (1,2,0)
*BR=.1001 (.1,500,0)
*NR=1 (.1,5,0)
*VAR=100 (0,1.0000E3,0)
*IKR=10.000E-3 (10.000E-3,20,0)
*ISC=1.0000E-15 (0,1,0)
*NC=2 (1,3,0)
*NK=.5 (.1,5,0)
*RE=0 (0,100.00E3,0)
*RB=0 (0,100.00E3,0)
*RC=0 (0,100.00E3,0)
*CJE=2.0000E-12 (0,1,0)
*VJE=.75 (.35,1.5000,0)
*MJE=.33 (.1,1,0)
*CJC=9.7165E-12 (0,1,0)
*VJC=.75 (.35,1.5000,0)
*MJC=.33333 (.1,1,0)
*FC=.5 (.1,1.5000,0)
*TF=1.2996E-9 (0,1,0)
*XTF=10 (0,100.00E3,0)
*VTF=10 (0,100.00E3,0)
*ITF=1 (0,100.00E3,0)
*PTF=0 (0,360,0)
*TR=10.000E-9 (0,1,0)
*EG=1.1100 (.69,5,0)
*XTB=0 (0,100.00E3,0)
*XTI=3 (.1,100.00E3,0)
*EndParam

*DEVICE=Q2SA949,PNP

* Q2SA949 PNP model
* created using Parts release 6.3a on 10/02/96 at 08:37
* Parts is a MicroSim product.
.MODEL Q2SA949 PNP
+ IS=246.34E-21
+ BF=155
+ VAF=100
+ IKF=10.000E-3
+ BR=.1001
+ VAR=100
+ IKR=10.000E-3
+ ISC=1.0000E-15
+ CJE=2.0000E-12
+ CJC=9.7165E-12
+ MJC=.33333
+ TF=1.2996E-9
+ XTF=10
+ VTF=10
+ ITF=1
+ TR=10.000E-9
*$
*BeginSpec
*JV: Vbe=-1 Vce=-5 Ib=-.5 Ib%=10
*OA: Vce=-5
*FB: (-.1,160) Vce=-5
*VV: (-.5,-1) Ic/Ib=10
*CB: (-10,40.00E-12)
*EB:
*ST: Ic/Ib=10
*GB: (-.1,120.0E6) Vce=-10
*EndSpec

*BeginTrace
*JV: 0,1,-100.0E-6,-.1,1,3,0,0,-1 (27)
*OA: 1,1,-100.0E-6,-.1,1,3,0,0,-1 (27)
*FB: 0,1,-100.0E-6,-.1,1,3,0,0,-1 (27)
*VV: 0,1,-100.0E-6,-.1,1,3,0,0,-1 (27)
*CB: 0,1,-.1,-100,1,3,0,0,-1 (27)
*EB: 0,1,-.1,-10,1,3,0,0,-1 (27)
*ST: 0,1,-100.0E-6,-.1,1,3,0,0,-1 (27)
*GB: 0,1,-100.0E-6,-.1,1,3,0,0,-1 (27)
*EndTrace

*BeginParam
*IS=10.000E-15 (10.000E-21,1.0000E-6,0)
*BF=160 (1,1.5000E3,0)
*NF=1 (.8,1.2000,0)
*VAF=100 (0,1.0000E3,0)
*IKF=10.000E-3 (10.000E-3,20,0)
*ISE=0 (0,1,0)
*NE=1.5000 (1,2,0)
*BR=2 (.1,500,0)
*NR=1 (.1,5,0)
*VAR=100 (0,1.0000E3,0)
*IKR=10.000E-3 (10.000E-3,20,0)
*ISC=10.000E-15 (0,1,0)
*NC=2 (1,3,0)
*NK=.5 (.1,5,0)
*RE=0 (0,100.00E3,0)
*RB=0 (0,100.00E3,0)
*RC=0 (0,100.00E3,0)
*CJE=2.0000E-12 (0,1,0)
*VJE=.75 (.35,1.5000,0)
*MJE=.33 (.1,1,0)
*CJC=97.165E-12 (0,1,0)
*VJC=.75 (.35,1.5000,0)
*MJC=.33333 (.1,1,0)
*FC=.5 (.1,1.5000,0)
*TF=280.68E-12 (0,1,0)
*XTF=10 (0,100.00E3,0)
*VTF=10 (0,100.00E3,0)
*ITF=1 (0,100.00E3,0)
*PTF=0 (0,360,0)
*TR=10.000E-9 (0,1,0)
*EG=1.1100 (.69,5,0)
*XTB=0 (0,100.00E3,0)
*XTI=3 (.1,100.00E3,0)
*EndParam

*DEVICE=Q2SA965,PNP

* Q2SA965 PNP model
* created using Parts release 6.3a on 10/02/96 at 08:47
* Parts is a MicroSim product.
.MODEL Q2SA965 PNP
+ IS=10.000E-15
+ BF=160
+ VAF=100
+ IKF=10.000E-3
+ BR=2
+ VAR=100
+ IKR=10.000E-3
+ ISC=10.000E-15
+ CJE=2.0000E-12
+ CJC=97.165E-12
+ MJC=.33333
+ TF=280.68E-12
+ XTF=10
+ VTF=10
+ ITF=1
+ TR=10.000E-9
*$
*BeginSpec
*JV: Vbe=-1 Vce=-2 Ib=-.5 Ib%=10
*OA: Vce=5
*FB: (-.5,210) Vce=-2
*VV: (-1.500,-2) Ic/Ib=10
*CB: (-10,30.00E-12)
*EB:
*ST: Ic/Ib=10
*GB: (-.5,120.0E6) Vce=-2
*EndSpec

*BeginTrace
*JV: 0,1,-100.0E-6,-.1,1,3,0,0,-1 (27)
*OA: 1,1,-100.0E-6,-.1,1,3,0,0,-1 (27)
*FB: 0,1,-100.0E-6,-.1,1,3,0,0,-1 (27)
*VV: 0,1,-100.0E-6,-.1,1,3,0,0,-1 (27)
*CB: 0,1,-.1,-100,1,3,0,0,-1 (27)
*EB: 0,1,-.1,-10,1,3,0,0,-1 (27)
*ST: 0,1,-100.0E-6,-.1,1,3,0,0,-1 (27)
*GB: 0,1,-100.0E-6,-.1,1,3,0,0,-1 (27)
*EndTrace

*BeginParam
*IS=10.000E-15 (10.000E-21,1.0000E-6,0)
*BF=210 (1,1.5000E3,0)
*NF=1 (.8,1.2000,0)
*VAF=100 (0,1.0000E3,0)
*IKF=10.000E-3 (10.000E-3,20,0)
*ISE=0 (0,1,0)
*NE=1.5000 (1,2,0)
*BR=2 (.1,500,0)
*NR=1 (.1,5,0)
*VAR=100 (0,1.0000E3,0)
*IKR=10.000E-3 (10.000E-3,20,0)
*ISC=10.000E-15 (0,1,0)
*NC=2 (1,3,0)
*NK=.5 (.1,5,0)
*RE=0 (0,100.00E3,0)
*RB=0 (0,100.00E3,0)
*RC=0 (0,100.00E3,0)
*CJE=2.0000E-12 (0,1,0)
*VJE=.75 (.35,1.5000,0)
*MJE=.33 (.1,1,0)
*CJC=72.874E-12 (0,1,0)
*VJC=.75 (.35,1.5000,0)
*MJC=.33333 (.1,1,0)
*FC=.5 (.1,1.5000,0)
*TF=121.24E-12 (0,1,0)
*XTF=10 (0,100.00E3,0)
*VTF=10 (0,100.00E3,0)
*ITF=1 (0,100.00E3,0)
*PTF=0 (0,360,0)
*TR=10.000E-9 (0,1,0)
*EG=1.1100 (.69,5,0)
*XTB=0 (0,100.00E3,0)
*XTI=3 (.1,100.00E3,0)
*EndParam

*DEVICE=Q2SA966,PNP

* Q2SA966 PNP model
* created using Parts release 6.3a on 10/02/96 at 08:57
* Parts is a MicroSim product.
.MODEL Q2SA966 PNP
+ IS=10.000E-15
+ BF=210
+ VAF=100
+ IKF=10.000E-3
+ BR=2
+ VAR=100
+ IKR=10.000E-3
+ ISC=10.000E-15
+ CJE=2.0000E-12
+ CJC=72.874E-12
+ MJC=.33333
+ TF=121.24E-12
+ XTF=10
+ VTF=10
+ ITF=1
+ TR=10.000E-9
*$
*BeginSpec
*JV: Vbe=-.9 Vce=-.2 Ib=-.15 Ib%=10
*OA: Vce=-5
*FB: (-1,155) Vce=-1
*VV: (-3,-.2) Ic/Ib=10
*CB: (-10,170.0E-12)
*EB:
*ST: Ic/Ib=10
*GB: (-1,60.00E6) Vce=-1
*EndSpec

*BeginTrace
*JV: 0,1,100.0E-6,.1,1,3,0,0,-1 (27)
*OA: 1,1,100.0E-6,.1,1,3,0,0,-1 (27)
*FB: 0,1,100.0E-6,.1,1,3,0,0,-1 (27)
*VV: 0,1,100.0E-6,.1,1,3,0,0,-1 (27)
*CB: 0,1,.1,100,1,3,0,0,-1 (27)
*EB: 0,1,.1,10,1,3,0,0,-1 (27)
*ST: 0,1,100.0E-6,.1,1,3,0,0,-1 (27)
*GB: 0,1,100.0E-6,.1,1,3,0,0,-1 (27)
*EndTrace

*BeginParam
*IS=26.433E-15 (10.000E-21,1.0000E-6,0)
*BF=155 (1,1.5000E3,0)
*NF=1 (.8,1.2000,0)
*VAF=100 (0,1.0000E3,0)
*IKF=10.000E-3 (10.000E-3,20,0)
*ISE=0 (0,1,0)
*NE=1.5000 (1,2,0)
*BR=2 (.1,500,0)
*NR=1 (.1,5,0)
*VAR=100 (0,1.0000E3,0)
*IKR=10.000E-3 (10.000E-3,20,0)
*ISC=26.433E-15 (0,1,0)
*NC=2 (1,3,0)
*NK=.5 (.1,5,0)
*RE=0 (0,100.00E3,0)
*RB=0 (0,100.00E3,0)
*RC=0 (0,100.00E3,0)
*CJE=2.0000E-12 (0,1,0)
*VJE=.75 (.35,1.5000,0)
*MJE=.33 (.1,1,0)
*CJC=412.95E-12 (0,1,0)
*VJC=.75 (.35,1.5000,0)
*MJC=.33333 (.1,1,0)
*FC=.5 (.1,1.5000,0)
*TF=236.17E-12 (0,1,0)
*XTF=10 (0,100.00E3,0)
*VTF=10 (0,100.00E3,0)
*ITF=1 (0,100.00E3,0)
*PTF=0 (0,360,0)
*TR=10.000E-9 (0,1,0)
*EG=1.1100 (.69,5,0)
*XTB=0 (0,100.00E3,0)
*XTI=3 (.1,100.00E3,0)
*EndParam

*DEVICE=Q2SA1012,PNP

* Q2SA1012 PNP model
* created using Parts release 6.3a on 10/02/96 at 09:04
* Parts is a MicroSim product.
.MODEL Q2SA1012 PNP
+ IS=26.433E-15
+ BF=155
+ VAF=100
+ IKF=10.000E-3
+ BR=2
+ VAR=100
+ IKR=10.000E-3
+ ISC=26.433E-15
+ CJE=2.0000E-12
+ CJC=412.95E-12
+ MJC=.33333
+ TF=236.17E-12
+ XTF=10
+ VTF=10
+ ITF=1
+ TR=10.000E-9
*$
*BeginSpec
*JV: Vbe=-.6 Vce=-5 Ib=-50.00E-3 Ib%=10
*OA: Vce=5
*FB: (-.2,130) Vce=-5
*VV: (-.5,-1.500) Ic/Ib=10
*CB: (-10,35.00E-12)
*EB:
*ST: Ic/Ib=10
*GB: (-.2,50.00E6) Vce=-5
*EndSpec

*BeginTrace
*JV: 0,1,-100.0E-6,-.1,1,3,0,0,-1 (27)
*OA: 1,1,-100.0E-6,-.1,1,3,0,0,-1 (27)
*FB: 0,1,-100.0E-6,-.1,1,3,0,0,-1 (27)
*VV: 0,1,-100.0E-6,-.1,1,3,0,0,-1 (27)
*CB: 0,1,-.1,-100,1,3,0,0,-1 (27)
*EB: 0,1,-.1,-10,1,3,0,0,-1 (27)
*ST: 0,1,-100.0E-6,-.1,1,3,0,0,-1 (27)
*GB: 0,1,-100.0E-6,-.1,1,3,0,0,-1 (27)
*EndTrace

*BeginParam
*IS=10.000E-15 (10.000E-21,1.0000E-6,0)
*BF=130 (1,1.5000E3,0)
*NF=1 (.8,1.2000,0)
*VAF=100 (0,1.0000E3,0)
*IKF=10.000E-3 (10.000E-3,20,0)
*ISE=0 (0,1,0)
*NE=1.5000 (1,2,0)
*BR=2 (.1,500,0)
*NR=1 (.1,5,0)
*VAR=100 (0,1.0000E3,0)
*IKR=10.000E-3 (10.000E-3,20,0)
*ISC=10.000E-15 (0,1,0)
*NC=2 (1,3,0)
*NK=.5 (.1,5,0)
*RE=0 (0,100.00E3,0)
*RB=0 (0,100.00E3,0)
*RC=0 (0,100.00E3,0)
*CJE=2.0000E-12 (0,1,0)
*VJE=.75 (.35,1.5000,0)
*MJE=.33 (.1,1,0)
*CJC=85.019E-12 (0,1,0)
*VJC=.75 (.35,1.5000,0)
*MJC=.33333 (.1,1,0)
*FC=.5 (.1,1.5000,0)
*TF=332.32E-12 (0,1,0)
*XTF=10 (0,100.00E3,0)
*VTF=10 (0,100.00E3,0)
*ITF=1 (0,100.00E3,0)
*PTF=0 (0,360,0)
*TR=10.000E-9 (0,1,0)
*EG=1.1100 (.69,5,0)
*XTB=0 (0,100.00E3,0)
*XTI=3 (.1,100.00E3,0)
*EndParam

*DEVICE=Q2SA1013,PNP

* Q2SA1013 PNP model
* created using Parts release 6.3a on 10/02/96 at 09:11
* Parts is a MicroSim product.
.MODEL Q2SA1013 PNP
+ IS=10.000E-15
+ BF=130
+ VAF=100
+ IKF=10.000E-3
+ BR=2
+ VAR=100
+ IKR=10.000E-3
+ ISC=10.000E-15
+ CJE=2.0000E-12
+ CJC=85.019E-12
+ MJC=.33333
+ TF=332.32E-12
+ XTF=10
+ VTF=10
+ ITF=1
+ TR=10.000E-9
*$
*BeginSpec
*JV: Vbe=-1.200 Vce=-.5 Ib=-50.00E-3 Ib%=10
*OA: Vce=-5
*FB: (-.5,155) Vce=-2
*VV: (-1,-.5) Ic/Ib=10
*CB: (-10,40.00E-12)
*EB:
*ST: Ic/Ib=10
*GB: (-.5,100.0E6) Vce=-2
*EndSpec

*BeginTrace
*JV: 0,1,100.0E-6,.1,1,3,0,0,-1 (27)
*OA: 1,1,100.0E-6,.1,1,3,0,0,-1 (27)
*FB: 0,1,100.0E-6,.1,1,3,0,0,-1 (27)
*VV: 0,1,100.0E-6,.1,1,3,0,0,-1 (27)
*CB: 0,1,.1,100,1,3,0,0,-1 (27)
*EB: 0,1,.1,10,1,3,0,0,-1 (27)
*ST: 0,1,100.0E-6,.1,1,3,0,0,-1 (27)
*GB: 0,1,100.0E-6,.1,1,3,0,0,-1 (27)
*EndTrace

*BeginParam
*IS=8.8111E-15 (10.000E-21,1.0000E-6,0)
*BF=155 (1,1.5000E3,0)
*NF=1 (.8,1.2000,0)
*VAF=100 (0,1.0000E3,0)
*IKF=10.000E-3 (10.000E-3,20,0)
*ISE=0 (0,1,0)
*NE=1.5000 (1,2,0)
*BR=2 (.1,500,0)
*NR=1 (.1,5,0)
*VAR=100 (0,1.0000E3,0)
*IKR=10.000E-3 (10.000E-3,20,0)
*ISC=8.8111E-15 (0,1,0)
*NC=2 (1,3,0)
*NK=.5 (.1,5,0)
*RE=0 (0,100.00E3,0)
*RB=0 (0,100.00E3,0)
*RC=0 (0,100.00E3,0)
*CJE=2.0000E-12 (0,1,0)
*VJE=.75 (.35,1.5000,0)
*MJE=.33 (.1,1,0)
*CJC=97.165E-12 (0,1,0)
*VJC=.75 (.35,1.5000,0)
*MJC=.33333 (.1,1,0)
*FC=.5 (.1,1.5000,0)
*TF=145.40E-12 (0,1,0)
*XTF=10 (0,100.00E3,0)
*VTF=10 (0,100.00E3,0)
*ITF=1 (0,100.00E3,0)
*PTF=0 (0,360,0)
*TR=10.000E-9 (0,1,0)
*EG=1.1100 (.69,5,0)
*XTB=0 (0,100.00E3,0)
*XTI=3 (.1,100.00E3,0)
*EndParam

*DEVICE=Q2SA1020,PNP

* Q2SA1020 PNP model
* created using Parts release 6.3a on 10/02/96 at 09:21
* Parts is a MicroSim product.
.MODEL Q2SA1020 PNP
+ IS=8.8111E-15
+ BF=155
+ VAF=100
+ IKF=10.000E-3
+ BR=2
+ VAR=100
+ IKR=10.000E-3
+ ISC=8.8111E-15
+ CJE=2.0000E-12
+ CJC=97.165E-12
+ MJC=.33333
+ TF=145.40E-12
+ XTF=10
+ VTF=10
+ ITF=1
+ TR=10.000E-9
*$
*BeginSpec
*JV: Vbe=-.8 Vce=-1 Ib=-1.000E-3 Ib%=10
*OA: Vce=5
*FB: (-10.00E-3,160) Vce=-5
*VV: (-10.00E-3,-1) Ic/Ib=10
*CB: (-10,2.500E-12)
*EB:
*ST: Ic/Ib=10
*GB: (-10.00E-3,200.0E6) Vce=-10
*EndSpec

*BeginTrace
*JV: 0,1,100.0E-6,.1,1,3,0,0,-1 (27)
*OA: 1,1,100.0E-6,.1,1,3,0,0,-1 (27)
*FB: 0,1,100.0E-6,.1,1,3,0,0,-1 (27)
*VV: 0,1,100.0E-6,.1,1,3,0,0,-1 (27)
*CB: 0,1,.1,100,1,3,0,0,-1 (27)
*EB: 0,1,.1,10,1,3,0,0,-1 (27)
*ST: 0,1,100.0E-6,.1,1,3,0,0,-1 (27)
*GB: 0,1,100.0E-6,.1,1,3,0,0,-1 (27)
*EndTrace

*BeginParam
*IS=10.000E-15 (10.000E-21,1.0000E-6,0)
*BF=160 (1,1.5000E3,0)
*NF=1 (.8,1.2000,0)
*VAF=100 (0,1.0000E3,0)
*IKF=10.000E-3 (10.000E-3,20,0)
*ISE=0 (0,1,0)
*NE=1.5000 (1,2,0)
*BR=.1001 (.1,500,0)
*NR=1 (.1,5,0)
*VAR=100 (0,1.0000E3,0)
*IKR=10.000E-3 (10.000E-3,20,0)
*ISC=10.000E-15 (0,1,0)
*NC=2 (1,3,0)
*NK=.5 (.1,5,0)
*RE=0 (0,100.00E3,0)
*RB=0 (0,100.00E3,0)
*RC=0 (0,100.00E3,0)
*CJE=2.0000E-12 (0,1,0)
*VJE=.75 (.35,1.5000,0)
*MJE=.33 (.1,1,0)
*CJC=6.0728E-12 (0,1,0)
*VJC=.75 (.35,1.5000,0)
*MJC=.33333 (.1,1,0)
*FC=.5 (.1,1.5000,0)
*TF=768.43E-12 (0,1,0)
*XTF=10 (0,100.00E3,0)
*VTF=10 (0,100.00E3,0)
*ITF=1 (0,100.00E3,0)
*PTF=0 (0,360,0)
*TR=10.000E-9 (0,1,0)
*EG=1.1100 (.69,5,0)
*XTB=0 (0,100.00E3,0)
*XTI=3 (.1,100.00E3,0)
*EndParam

*DEVICE=Q2SA1145,PNP

* Q2SA1145 PNP model
* created using Parts release 6.3a on 10/02/96 at 09:27
* Parts is a MicroSim product.
.MODEL Q2SA1145 PNP
+ IS=10.000E-15
+ BF=160
+ VAF=100
+ IKF=10.000E-3
+ BR=.1001
+ VAR=100
+ IKR=10.000E-3
+ ISC=10.000E-15
+ CJE=2.0000E-12
+ CJC=6.0728E-12
+ MJC=.33333
+ TF=768.43E-12
+ XTF=10
+ VTF=10
+ ITF=1
+ TR=10.000E-9
*$
*BeginSpec
*JV: Vbe=-.83 Vce=-.2 Ib=-50.00E-3 Ib%=10
*OA: Vce=-5
*FB: (-.5,320) Vce=-1
*VV: (-2,-.2) Ic/Ib=10
*CB: (-10,50.00E-12)
*EB:
*ST: Ic/Ib=10
*GB: (-.5,140.0E6) Vce=-10
*EndSpec

*BeginTrace
*JV: 0,1,-100.0E-6,-.1,1,3,0,0,-1 (27)
*OA: 1,1,-100.0E-6,-.1,1,3,0,0,-1 (27)
*FB: 0,1,-100.0E-6,-.1,1,3,0,0,-1 (27)
*VV: 0,1,-100.0E-6,-.1,1,3,0,0,-1 (27)
*CB: 0,1,-.1,-100,1,3,0,0,-1 (27)
*EB: 0,1,-.1,-10,1,3,0,0,-1 (27)
*ST: 0,1,-100.0E-6,-.1,1,3,0,0,-1 (27)
*GB: 0,1,-100.0E-6,-.1,1,3,0,0,-1 (27)
*EndTrace

*BeginParam
*IS=131.95E-15 (10.000E-21,1.0000E-6,0)
*BF=320 (1,1.5000E3,0)
*NF=1 (.8,1.2000,0)
*VAF=100 (0,1.0000E3,0)
*IKF=10.000E-3 (10.000E-3,20,0)
*ISE=0 (0,1,0)
*NE=1.5000 (1,2,0)
*BR=2 (.1,500,0)
*NR=1 (.1,5,0)
*VAR=100 (0,1.0000E3,0)
*IKR=10.000E-3 (10.000E-3,20,0)
*ISC=131.95E-15 (0,1,0)
*NC=2 (1,3,0)
*NK=.5 (.1,5,0)
*RE=0 (0,100.00E3,0)
*RB=0 (0,100.00E3,0)
*RC=0 (0,100.00E3,0)
*CJE=2.0000E-12 (0,1,0)
*VJE=.75 (.35,1.5000,0)
*MJE=.33 (.1,1,0)
*CJC=121.46E-12 (0,1,0)
*VJC=.75 (.35,1.5000,0)
*MJC=.33333 (.1,1,0)
*FC=.5 (.1,1.5000,0)
*TF=169.07E-12 (0,1,0)
*XTF=10 (0,100.00E3,0)
*VTF=10 (0,100.00E3,0)
*ITF=1 (0,100.00E3,0)
*PTF=0 (0,360,0)
*TR=10.000E-9 (0,1,0)
*EG=1.1100 (.69,5,0)
*XTB=0 (0,100.00E3,0)
*XTI=3 (.1,100.00E3,0)
*EndParam

*DEVICE=Q2SA1160,PNP

* Q2SA1160 PNP model
* created using Parts release 6.3a on 10/02/96 at 09:31
* Parts is a MicroSim product.
.MODEL Q2SA1160 PNP
+ IS=131.95E-15
+ BF=320
+ VAF=100
+ IKF=10.000E-3
+ BR=2
+ VAR=100
+ IKR=10.000E-3
+ ISC=131.95E-15
+ CJE=2.0000E-12
+ CJC=121.46E-12
+ MJC=.33333
+ TF=169.07E-12
+ XTF=10
+ VTF=10
+ ITF=1
+ TR=10.000E-9
*$
*BeginSpec
*JV: Vbe=-1.200 Vce=-.5 Ib=-50.00E-3 Ib%=10
*OA: Vce=5
*FB: (-.5,155) Vce=-2
*VV: (-1,-.5) Ic/Ib=10
*CB: (-10,40.00E-12)
*EB:
*ST: Ic/Ib=10
*GB: (-.5,100.0E6) Vce=-2
*EndSpec

*BeginTrace
*JV: 0,1,100.0E-6,.1,1,3,0,0,-1 (27)
*OA: 1,1,100.0E-6,.1,1,3,0,0,-1 (27)
*FB: 0,1,100.0E-6,.1,1,3,0,0,-1 (27)
*VV: 0,1,100.0E-6,.1,1,3,0,0,-1 (27)
*CB: 0,1,.1,100,1,3,0,0,-1 (27)
*EB: 0,1,.1,10,1,3,0,0,-1 (27)
*ST: 0,1,100.0E-6,.1,1,3,0,0,-1 (27)
*GB: 0,1,100.0E-6,.1,1,3,0,0,-1 (27)
*EndTrace

*BeginParam
*IS=8.8111E-15 (10.000E-21,1.0000E-6,0)
*BF=155 (1,1.5000E3,0)
*NF=1 (.8,1.2000,0)
*VAF=100 (0,1.0000E3,0)
*IKF=10.000E-3 (10.000E-3,20,0)
*ISE=0 (0,1,0)
*NE=1.5000 (1,2,0)
*BR=2 (.1,500,0)
*NR=1 (.1,5,0)
*VAR=100 (0,1.0000E3,0)
*IKR=10.000E-3 (10.000E-3,20,0)
*ISC=8.8111E-15 (0,1,0)
*NC=2 (1,3,0)
*NK=.5 (.1,5,0)
*RE=0 (0,100.00E3,0)
*RB=0 (0,100.00E3,0)
*RC=0 (0,100.00E3,0)
*CJE=2.0000E-12 (0,1,0)
*VJE=.75 (.35,1.5000,0)
*MJE=.33 (.1,1,0)
*CJC=97.165E-12 (0,1,0)
*VJC=.75 (.35,1.5000,0)
*MJC=.33333 (.1,1,0)
*FC=.5 (.1,1.5000,0)
*TF=145.40E-12 (0,1,0)
*XTF=10 (0,100.00E3,0)
*VTF=10 (0,100.00E3,0)
*ITF=1 (0,100.00E3,0)
*PTF=0 (0,360,0)
*TR=10.000E-9 (0,1,0)
*EG=1.1100 (.69,5,0)
*XTB=0 (0,100.00E3,0)
*XTI=3 (.1,100.00E3,0)
*EndParam

*DEVICE=Q2SA1241,PNP

* Q2SA1241 PNP model
* created using Parts release 6.3a on 10/02/96 at 09:38
* Parts is a MicroSim product.
.MODEL Q2SA1241 PNP
+ IS=8.8111E-15
+ BF=155
+ VAF=100
+ IKF=10.000E-3
+ BR=2
+ VAR=100
+ IKR=10.000E-3
+ ISC=8.8111E-15
+ CJE=2.0000E-12
+ CJC=97.165E-12
+ MJC=.33333
+ TF=145.40E-12
+ XTF=10
+ VTF=10
+ ITF=1
+ TR=10.000E-9
*$
*BeginSpec
*JV: Vbe=-1.500 Vce=-1 Ib=-.1 Ib%=10
*OA: Vce=-5
*FB: (-.5,210) Vce=-2
*VV: (-4,-1) Ic/Ib=10
*CB: (-10,62.00E-12)
*EB:
*ST: Ic/Ib=10
*GB: (-.5,170.0E6) Vce=-2
*EndSpec

*BeginTrace
*JV: 0,1,100.0E-6,.1,1,3,0,0,-1 (27)
*OA: 1,1,100.0E-6,.1,1,3,0,0,-1 (27)
*FB: 0,1,100.0E-6,.1,1,3,0,0,-1 (27)
*VV: 0,1,100.0E-6,.1,1,3,0,0,-1 (27)
*CB: 0,1,.1,100,1,3,0,0,-1 (27)
*EB: 0,1,.1,10,1,3,0,0,-1 (27)
*ST: 0,1,100.0E-6,.1,1,3,0,0,-1 (27)
*GB: 0,1,100.0E-6,.1,1,3,0,0,-1 (27)
*EndTrace

*BeginParam
*IS=40.209E-12 (10.000E-21,1.0000E-6,0)
*BF=210 (1,1.5000E3,0)
*NF=1 (.8,1.2000,0)
*VAF=100 (0,1.0000E3,0)
*IKF=10.000E-3 (10.000E-3,20,0)
*ISE=0 (0,1,0)
*NE=1.5000 (1,2,0)
*BR=2 (.1,500,0)
*NR=1 (.1,5,0)
*VAR=100 (0,1.0000E3,0)
*IKR=10.000E-3 (10.000E-3,20,0)
*ISC=40.209E-12 (0,1,0)
*NC=2 (1,3,0)
*NK=.5 (.1,5,0)
*RE=0 (0,100.00E3,0)
*RB=0 (0,100.00E3,0)
*RC=0 (0,100.00E3,0)
*CJE=2.0000E-12 (0,1,0)
*VJE=.75 (.35,1.5000,0)
*MJE=.33 (.1,1,0)
*CJC=150.61E-12 (0,1,0)
*VJC=.75 (.35,1.5000,0)
*MJC=.33333 (.1,1,0)
*FC=.5 (.1,1.5000,0)
*TF=86.079E-12 (0,1,0)
*XTF=10 (0,100.00E3,0)
*VTF=10 (0,100.00E3,0)
*ITF=1 (0,100.00E3,0)
*PTF=0 (0,360,0)
*TR=10.000E-9 (0,1,0)
*EG=1.1100 (.69,5,0)
*XTB=0 (0,100.00E3,0)
*XTI=3 (.1,100.00E3,0)
*EndParam

*DEVICE=Q2SA1242,PNP

* Q2SA1242 PNP model
* created using Parts release 6.3a on 10/02/96 at 09:43
* Parts is a MicroSim product.
.MODEL Q2SA1242 PNP
+ IS=40.209E-12
+ BF=210
+ VAF=100
+ IKF=10.000E-3
+ BR=2
+ VAR=100
+ IKR=10.000E-3
+ ISC=40.209E-12
+ CJE=2.0000E-12
+ CJC=150.61E-12
+ MJC=.33333
+ TF=86.079E-12
+ XTF=10
+ VTF=10
+ ITF=1
+ TR=10.000E-9
*$
*BeginSpec
*JV: Vbe=-.95 Vce=-1 Ib=-.5 Ib%=10
*OA: Vce=5
*FB: (-1,108) Vce=-5
*VV: (-5,-1) Ic/Ib=10
*CB: (-10,290.0E-12)
*EB:
*ST: Ic/Ib=10
*GB: (-5,30.00E6) Vce=-5
*EndSpec

*BeginTrace
*JV: 0,1,100.0E-6,.1,1,3,0,0,-1 (27)
*OA: 1,1,100.0E-6,.1,1,3,0,0,-1 (27)
*FB: 0,1,100.0E-6,.1,1,3,0,0,-1 (27)
*VV: 0,1,100.0E-6,.1,1,3,0,0,-1 (27)
*CB: 0,1,.1,100,1,3,0,0,-1 (27)
*EB: 0,1,.1,10,1,3,0,0,-1 (27)
*ST: 0,1,100.0E-6,.1,1,3,0,0,-1 (27)
*GB: 0,1,100.0E-6,.1,1,3,0,0,-1 (27)
*EndTrace

*BeginParam
*IS=10.000E-15 (10.000E-21,1.0000E-6,0)
*BF=108 (1,1.5000E3,0)
*NF=1 (.8,1.2000,0)
*VAF=100 (0,1.0000E3,0)
*IKF=10.000E-3 (10.000E-3,20,0)
*ISE=0 (0,1,0)
*NE=1.5000 (1,2,0)
*BR=2 (.1,500,0)
*NR=1 (.1,5,0)
*VAR=100 (0,1.0000E3,0)
*IKR=10.000E-3 (10.000E-3,20,0)
*ISC=10.000E-15 (0,1,0)
*NC=2 (1,3,0)
*NK=.5 (.1,5,0)
*RE=0 (0,100.00E3,0)
*RB=0 (0,100.00E3,0)
*RC=0 (0,100.00E3,0)
*CJE=2.0000E-12 (0,1,0)
*VJE=.75 (.35,1.5000,0)
*MJE=.33 (.1,1,0)
*CJC=704.44E-12 (0,1,0)
*VJC=.75 (.35,1.5000,0)
*MJC=.33333 (.1,1,0)
*FC=.5 (.1,1.5000,0)
*TF=616.17E-12 (0,1,0)
*XTF=10 (0,100.00E3,0)
*VTF=10 (0,100.00E3,0)
*ITF=1 (0,100.00E3,0)
*PTF=0 (0,360,0)
*TR=10.000E-9 (0,1,0)
*EG=1.1100 (.69,5,0)
*XTB=0 (0,100.00E3,0)
*XTI=3 (.1,100.00E3,0)
*EndParam

*DEVICE=Q2SA1263N,PNP

* Q2SA1263N PNP model
* created using Parts release 6.3a on 10/02/96 at 09:48
* Parts is a MicroSim product.
.MODEL Q2SA1263N PNP
+ IS=10.000E-15
+ BF=108
+ VAF=100
+ IKF=10.000E-3
+ BR=2
+ VAR=100
+ IKR=10.000E-3
+ ISC=10.000E-15
+ CJE=2.0000E-12
+ CJC=704.44E-12
+ MJC=.33333
+ TF=616.17E-12
+ XTF=10
+ VTF=10
+ ITF=1
+ TR=10.000E-9
*$
*BeginSpec
*JV: Vbe=-.97 Vce=-.8 Ib=-.6 Ib%=10
*OA: Vce=-5
*FB: (-1,108) Vce=-5
*VV: (-6,-.8) Ic/Ib=10
*CB: (-10,420.0E-12)
*EB:
*ST: Ic/Ib=10
*GB: (-1,30) Vce=-5
*EndSpec

*BeginTrace
*JV: 0,1,-100.0E-6,-.1,1,3,0,0,-1 (27)
*OA: 1,1,-100.0E-6,-.1,1,3,0,0,-1 (27)
*FB: 0,1,-100.0E-6,-.1,1,3,0,0,-1 (27)
*VV: 0,1,-100.0E-6,-.1,1,3,0,0,-1 (27)
*CB: 0,1,-.1,-100,1,3,0,0,-1 (27)
*EB: 0,1,-.1,-10,1,3,0,0,-1 (27)
*ST: 0,1,-100.0E-6,-.1,1,3,0,0,-1 (27)
*GB: 0,1,-100.0E-6,-.1,1,3,0,0,-1 (27)
*EndTrace

*BeginParam
*IS=1.0000E-6 (10.000E-21,1.0000E-6,0)
*BF=108 (1,1.5000E3,0)
*NF=1 (.8,1.2000,0)
*VAF=100 (0,1.0000E3,0)
*IKF=10.000E-3 (10.000E-3,20,0)
*ISE=0 (0,1,0)
*NE=1.5000 (1,2,0)
*BR=2 (.1,500,0)
*NR=1 (.1,5,0)
*VAR=100 (0,1.0000E3,0)
*IKR=10.000E-3 (10.000E-3,20,0)
*ISC=1.0000E-6 (0,1,0)
*NC=2 (1,3,0)
*NK=.5 (.1,5,0)
*RE=0 (0,100.00E3,0)
*RB=0 (0,100.00E3,0)
*RC=0 (0,100.00E3,0)
*CJE=2.0000E-12 (0,1,0)
*VJE=.75 (.35,1.5000,0)
*MJE=.33 (.1,1,0)
*CJC=1.0202E-9 (0,1,0)
*VJC=.75 (.35,1.5000,0)
*MJC=.33333 (.1,1,0)
*FC=.5 (.1,1.5000,0)
*TF=627.41E-6 (0,1,0)
*XTF=10 (0,100.00E3,0)
*VTF=10 (0,100.00E3,0)
*ITF=1 (0,100.00E3,0)
*PTF=0 (0,360,0)
*TR=10.000E-9 (0,1,0)
*EG=1.1100 (.69,5,0)
*XTB=0 (0,100.00E3,0)
*XTI=3 (.1,100.00E3,0)
*EndParam

*DEVICE=Q2SA1264,PNP

* Q2SA1264 PNP model
* created using Parts release 6.3a on 10/02/96 at 09:52
* Parts is a MicroSim product.
.MODEL Q2SA1264 PNP
+ IS=1.0000E-6
+ BF=108
+ VAF=100
+ IKF=10.000E-3
+ BR=2
+ VAR=100
+ IKR=10.000E-3
+ ISC=1.0000E-6
+ CJE=2.0000E-12
+ CJC=1.0202E-9
+ MJC=.33333
+ TF=627.41E-6
+ XTF=10
+ VTF=10
+ ITF=1
+ TR=10.000E-9
*$
*BeginSpec
*JV: Vbe=-1 Vce=-.8 Ib=-.7 Ib%=10
*OA: Vce=5
*FB: (-1,108) Vce=-5
*VV: (-7,-5) Ic/Ib=10
*CB: (-10,480.0E-12)
*EB:
*ST: Ic/Ib=10
*GB: (-1,30.00E6) Vce=-5
*EndSpec

*BeginTrace
*JV: 0,1,-100.0E-6,-.1,1,3,0,0,-1 (27)
*OA: 1,1,-100.0E-6,-.1,1,3,0,0,-1 (27)
*FB: 0,1,-100.0E-6,-.1,1,3,0,0,-1 (27)
*VV: 0,1,-100.0E-6,-.1,1,3,0,0,-1 (27)
*CB: 0,1,-.1,-100,1,3,0,0,-1 (27)
*EB: 0,1,-.1,-10,1,3,0,0,-1 (27)
*ST: 0,1,-100.0E-6,-.1,1,3,0,0,-1 (27)
*GB: 0,1,-100.0E-6,-.1,1,3,0,0,-1 (27)
*EndTrace

*BeginParam
*IS=1.0000E-6 (10.000E-21,1.0000E-6,0)
*BF=108 (1,1.5000E3,0)
*NF=1 (.8,1.2000,0)
*VAF=100 (0,1.0000E3,0)
*IKF=10.000E-3 (10.000E-3,20,0)
*ISE=0 (0,1,0)
*NE=1.5000 (1,2,0)
*BR=2 (.1,500,0)
*NR=1 (.1,5,0)
*VAR=100 (0,1.0000E3,0)
*IKR=10.000E-3 (10.000E-3,20,0)
*ISC=1.0000E-6 (0,1,0)
*NC=2 (1,3,0)
*NK=.5 (.1,5,0)
*RE=0 (0,100.00E3,0)
*RB=0 (0,100.00E3,0)
*RC=0 (0,100.00E3,0)
*CJE=2.0000E-12 (0,1,0)
*VJE=.75 (.35,1.5000,0)
*MJE=.33 (.1,1,0)
*CJC=1.1660E-9 (0,1,0)
*VJC=.75 (.35,1.5000,0)
*MJC=.33333 (.1,1,0)
*FC=.5 (.1,1.5000,0)
*TF=623.70E-12 (0,1,0)
*XTF=10 (0,100.00E3,0)
*VTF=10 (0,100.00E3,0)
*ITF=1 (0,100.00E3,0)
*PTF=0 (0,360,0)
*TR=10.000E-9 (0,1,0)
*EG=1.1100 (.69,5,0)
*XTB=0 (0,100.00E3,0)
*XTI=3 (.1,100.00E3,0)
*EndParam

*DEVICE=Q2SA1265N,PNP

* Q2SA1265N PNP model
* created using Parts release 6.3a on 10/02/96 at 10:01
* Parts is a MicroSim product.
.MODEL Q2SA1265N PNP
+ IS=1.0000E-6
+ BF=108
+ VAF=100
+ IKF=10.000E-3
+ BR=2
+ VAR=100
+ IKR=10.000E-3
+ ISC=1.0000E-6
+ CJE=2.0000E-12
+ CJC=1.1660E-9
+ MJC=.33333
+ TF=623.70E-12
+ XTF=10
+ VTF=10
+ ITF=1
+ TR=10.000E-9
*$
*BeginSpec
*JV: Vbe=-.9 Vce=-1 Ib=-.15 Ib%=10
*OA: Vce=-5
*FB: (-1,155) Vce=-1
*VV: (-1,-.2) Ic/Ib=10
*CB: (-10,200.0E-12)
*EB:
*ST: Ic/Ib=10
*GB: (-1,60.00E6) Vce=-1
*EndSpec

*BeginTrace
*JV: 0,1,-100.0E-6,-.1,1,3,0,0,-1 (27)
*OA: 1,1,-100.0E-6,-.1,1,3,0,0,-1 (27)
*FB: 0,1,-100.0E-6,-.1,1,3,0,0,-1 (27)
*VV: 0,1,-100.0E-6,-.1,1,3,0,0,-1 (27)
*CB: 0,1,-.1,-100,1,3,0,0,-1 (27)
*EB: 0,1,-.1,-10,1,3,0,0,-1 (27)
*ST: 0,1,-100.0E-6,-.1,1,3,0,0,-1 (27)
*GB: 0,1,-100.0E-6,-.1,1,3,0,0,-1 (27)
*EndTrace

*BeginParam
*IS=10.000E-15 (10.000E-21,1.0000E-6,0)
*BF=155 (1,1.5000E3,0)
*NF=1 (.8,1.2000,0)
*VAF=100 (0,1.0000E3,0)
*IKF=10.000E-3 (10.000E-3,20,0)
*ISE=0 (0,1,0)
*NE=1.5000 (1,2,0)
*BR=2 (.1,500,0)
*NR=1 (.1,5,0)
*VAR=100 (0,1.0000E3,0)
*IKR=10.000E-3 (10.000E-3,20,0)
*ISC=10.000E-15 (0,1,0)
*NC=2 (1,3,0)
*NK=.5 (.1,5,0)
*RE=0 (0,100.00E3,0)
*RB=0 (0,100.00E3,0)
*RC=0 (0,100.00E3,0)
*CJE=2.0000E-12 (0,1,0)
*VJE=.75 (.35,1.5000,0)
*MJE=.33 (.1,1,0)
*CJC=485.82E-12 (0,1,0)
*VJC=.75 (.35,1.5000,0)
*MJC=.33333 (.1,1,0)
*FC=.5 (.1,1.5000,0)
*TF=235.44E-12 (0,1,0)
*XTF=10 (0,100.00E3,0)
*VTF=10 (0,100.00E3,0)
*ITF=1 (0,100.00E3,0)
*PTF=0 (0,360,0)
*TR=10.000E-9 (0,1,0)
*EG=1.1100 (.69,5,0)
*XTB=0 (0,100.00E3,0)
*XTI=3 (.1,100.00E3,0)
*EndParam

*DEVICE=Q2SA1293,PNP

* Q2SA1293 PNP model
* created using Parts release 6.3a on 10/02/96 at 10:07
* Parts is a MicroSim product.
.MODEL Q2SA1293 PNP
+ IS=10.000E-15
+ BF=155
+ VAF=100
+ IKF=10.000E-3
+ BR=2
+ VAR=100
+ IKR=10.000E-3
+ ISC=10.000E-15
+ CJE=2.0000E-12
+ CJC=485.82E-12
+ MJC=.33333
+ TF=235.44E-12
+ XTF=10
+ VTF=10
+ ITF=1
+ TR=10.000E-9
*$
*BeginSpec
*JV: Vbe=-1 Vce=-.9 Ib=-.8 Ib%=10
*OA: Vce=5
*FB: (-1,108) Vce=-5
*VV: (-1,-.9) Ic/Ib=10
*CB: (-10,480.0E-12)
*EB:
*ST: Ic/Ib=10
*GB: (-1,30.00E6) Vce=-5
*EndSpec

*BeginTrace
*JV: 0,1,100.0E-6,.1,1,3,0,0,-1 (27)
*OA: 1,1,100.0E-6,.1,1,3,0,0,-1 (27)
*FB: 0,1,100.0E-6,.1,1,3,0,0,-1 (27)
*VV: 0,1,100.0E-6,.1,1,3,0,0,-1 (27)
*CB: 0,1,.1,100,1,3,0,0,-1 (27)
*EB: 0,1,.1,10,1,3,0,0,-1 (27)
*ST: 0,1,100.0E-6,.1,1,3,0,0,-1 (27)
*GB: 0,1,100.0E-6,.1,1,3,0,0,-1 (27)
*EndTrace

*BeginParam
*IS=1.0000E-6 (10.000E-21,1.0000E-6,0)
*BF=108 (1,1.5000E3,0)
*NF=1 (.8,1.2000,0)
*VAF=100 (0,1.0000E3,0)
*IKF=10.000E-3 (10.000E-3,20,0)
*ISE=0 (0,1,0)
*NE=1.5000 (1,2,0)
*BR=2 (.1,500,0)
*NR=1 (.1,5,0)
*VAR=100 (0,1.0000E3,0)
*IKR=10.000E-3 (10.000E-3,20,0)
*ISC=1.0000E-6 (0,1,0)
*NC=2 (1,3,0)
*NK=.5 (.1,5,0)
*RE=0 (0,100.00E3,0)
*RB=0 (0,100.00E3,0)
*RC=0 (0,100.00E3,0)
*CJE=2.0000E-12 (0,1,0)
*VJE=.75 (.35,1.5000,0)
*MJE=.33 (.1,1,0)
*CJC=1.1660E-9 (0,1,0)
*VJC=.75 (.35,1.5000,0)
*MJC=.33333 (.1,1,0)
*FC=.5 (.1,1.5000,0)
*TF=623.70E-12 (0,1,0)
*XTF=10 (0,100.00E3,0)
*VTF=10 (0,100.00E3,0)
*ITF=1 (0,100.00E3,0)
*PTF=0 (0,360,0)
*TR=10.000E-9 (0,1,0)
*EG=1.1100 (.69,5,0)
*XTB=0 (0,100.00E3,0)
*XTI=3 (.1,100.00E3,0)
*EndParam

*DEVICE=Q2SA1301,PNP

* Q2SA1301 PNP model
* created using Parts release 6.3a on 10/02/96 at 10:12
* Parts is a MicroSim product.
.MODEL Q2SA1301 PNP
+ IS=1.0000E-6
+ BF=108
+ VAF=100
+ IKF=10.000E-3
+ BR=2
+ VAR=100
+ IKR=10.000E-3
+ ISC=1.0000E-6
+ CJE=2.0000E-12
+ CJC=1.1660E-9
+ MJC=.33333
+ TF=623.70E-12
+ XTF=10
+ VTF=10
+ ITF=1
+ TR=10.000E-9
*$
*BeginSpec
*JV: Vbe=-.75 Vce=-1.500 Ib=-50.00E-3 Ib%=10
*OA: Vce=-5
*FB: (-.5,75) Vce=-10
*VV: (-.5,-1.500) Ic/Ib=10
*CB: (-10,55.00E-12)
*EB:
*ST: Ic/Ib=10
*GB: (-.5,4.000E6) Vce=-10
*EndSpec

*BeginTrace
*JV: 0,1,-100.0E-6,-.1,1,3,0,0,-1 (27)
*OA: 1,1,-100.0E-6,-.1,1,3,0,0,-1 (27)
*FB: 0,1,-100.0E-6,-.1,1,3,0,0,-1 (27)
*VV: 0,1,-100.0E-6,-.1,1,3,0,0,-1 (27)
*CB: 0,1,-.1,-100,1,3,0,0,-1 (27)
*EB: 0,1,-.1,-10,1,3,0,0,-1 (27)
*ST: 0,1,-100.0E-6,-.1,1,3,0,0,-1 (27)
*GB: 0,1,-100.0E-6,-.1,1,3,0,0,-1 (27)
*EndTrace

*BeginParam
*IS=10.000E-15 (10.000E-21,1.0000E-6,0)
*BF=75 (1,1.5000E3,0)
*NF=1 (.8,1.2000,0)
*VAF=100 (0,1.0000E3,0)
*IKF=10.000E-3 (10.000E-3,20,0)
*ISE=0 (0,1,0)
*NE=1.5000 (1,2,0)
*BR=2 (.1,500,0)
*NR=1 (.1,5,0)
*VAR=100 (0,1.0000E3,0)
*IKR=10.000E-3 (10.000E-3,20,0)
*ISC=10.000E-15 (0,1,0)
*NC=2 (1,3,0)
*NK=.5 (.1,5,0)
*RE=0 (0,100.00E3,0)
*RB=0 (0,100.00E3,0)
*RC=0 (0,100.00E3,0)
*CJE=2.0000E-12 (0,1,0)
*VJE=.75 (.35,1.5000,0)
*MJE=.33 (.1,1,0)
*CJC=133.60E-12 (0,1,0)
*VJC=.75 (.35,1.5000,0)
*MJC=.33333 (.1,1,0)
*FC=.5 (.1,1.5000,0)
*TF=5.9225E-9 (0,1,0)
*XTF=10 (0,100.00E3,0)
*VTF=10 (0,100.00E3,0)
*ITF=1 (0,100.00E3,0)
*PTF=0 (0,360,0)
*TR=10.000E-9 (0,1,0)
*EG=1.1100 (.69,5,0)
*XTB=0 (0,100.00E3,0)
*XTI=3 (.1,100.00E3,0)
*EndParam

*DEVICE=Q2SA1304,PNP

* Q2SA1304 PNP model
* created using Parts release 6.3a on 10/02/96 at 10:19
* Parts is a MicroSim product.
.MODEL Q2SA1304 PNP
+ IS=10.000E-15
+ BF=75
+ VAF=100
+ IKF=10.000E-3
+ BR=2
+ VAR=100
+ IKR=10.000E-3
+ ISC=10.000E-15
+ CJE=2.0000E-12
+ CJC=133.60E-12
+ MJC=.33333
+ TF=5.9225E-9
+ XTF=10
+ VTF=10
+ ITF=1
+ TR=10.000E-9
*$
*BeginSpec
*JV: Vbe=-.9 Vce=-.2 Ib=-.15 Ib%=10
*OA: Vce=5
*FB: (-1,155) Vce=-1
*VV: (-1,-.2) Ic/Ib=10
*CB: (-10,170.0E-12)
*EB:
*ST: Ic/Ib=10
*GB: (-1,60.00E6) Vce=-1
*EndSpec

*BeginTrace
*JV: 0,1,-100.0E-6,-.1,1,3,0,0,-1 (27)
*OA: 1,1,-100.0E-6,-.1,1,3,0,0,-1 (27)
*FB: 0,1,-100.0E-6,-.1,1,3,0,0,-1 (27)
*VV: 0,1,-100.0E-6,-.1,1,3,0,0,-1 (27)
*CB: 0,1,-.1,-100,1,3,0,0,-1 (27)
*EB: 0,1,-.1,-10,1,3,0,0,-1 (27)
*ST: 0,1,-100.0E-6,-.1,1,3,0,0,-1 (27)
*GB: 0,1,-100.0E-6,-.1,1,3,0,0,-1 (27)
*EndTrace

*BeginParam
*IS=26.433E-15 (10.000E-21,1.0000E-6,0)
*BF=155 (1,1.5000E3,0)
*NF=1 (.8,1.2000,0)
*VAF=100 (0,1.0000E3,0)
*IKF=10.000E-3 (10.000E-3,20,0)
*ISE=0 (0,1,0)
*NE=1.5000 (1,2,0)
*BR=2 (.1,500,0)
*NR=1 (.1,5,0)
*VAR=100 (0,1.0000E3,0)
*IKR=10.000E-3 (10.000E-3,20,0)