*General Semiconductor devices modeled by Thomatronik
*December 2002

****************************************
* (c)1999 Thomatronik GmbH             *
*   info@thomatronik.de                *
*                                      *
* Author: Arpad Buermen                *
*   Arpad.Burmen@ieee.org              *
****************************************

.MODEL US1J D (
+   N=4.1587
+  IS=2.78613E-006
+  RS=0.112241
+  EG=1.11
+ XTI=3
+ CJO=2.92033E-011
+  VJ=3.46059
+   M=0.835798
+  FC=0.5
+  TT=1.84973E-007
+  BV=600
+ IBV=0.1
+  KF=0
+  AF=1 )


**********************************
* Model created by               *
*   Uni.Dipl.-Ing. Arpad Buermen *
*   arpad.burmen@ieee.org        *
* Copyright:                     *
*   Thomatronik GmbH, Germany    *
*   info@thomatronik.de          *
**********************************
*   SPICE3
.subckt ba782 1 2
ls 1 11 2.5E-009
vs 11 10 dc 0.7
ddio 10 2 legd temp = 25
.model legd d is = 4.07254E-011 n = 0.0394054 rs = 0.269437
+ eg = 1.11 xti = 3 tnom = 25
+ cjo = 3.41251E-012 vj = 0.0250021 m = 0.219936 fc = 0.5
+ tt = 2.4663E-011 bv = 38.5 ibv = 0.01 af = 1 kf = 0
.ends


**********************************
* Model created by               *
*   Uni.Dipl.-Ing. Arpad Buermen *
*   arpad.burmen@ieee.org        *
* Copyright:                     *
*   Thomatronik GmbH, Germany    *
*   info@thomatronik.de          *
**********************************
*   SPICE3
.subckt ba783 1 2
ls 1 11 2.5E-009
vs 11 10 dc 0.7
ddio 10 2 legd temp = 25
.model legd d is = 1E-015 n = 0.09 rs = 0.445537
+ eg = 1.11 xti = 3 tnom = 25
+ cjo = 3.41251E-012 vj = 0.0250021 m = 0.219936 fc = 0.5
+ tt = 2.4663E-011 bv = 38.5 ibv = 0.01 af = 1 kf = 0
.ends


**********************************
* Model created by               *
*   Uni.Dipl.-Ing. Arpad Buermen *
*   arpad.burmen@ieee.org        *
* Copyright:                     *
*   Thomatronik GmbH, Germany    *
*   info@thomatronik.de          *
**********************************
*   SPICE3
*              K1 K2 Common A
.subckt bat54a 1  2  3
ddio1 3 1 legd
dgr1 3 1 grd
ddio2 3 2 legd
dgr2 3 2 grd
.model legd d is = 1.47873E-007 n = 1.47352 rs = 1.73521
+ eg = 0.46214 xti = 4 tnom = 27
+ cjo = 1.22993E-011 vj = 0.700135 m = 0.517047 fc = 0.5
+ tt = 7.21348E-009 bv = 33 ibv = 0.1 af = 1 kf = 0
.model grd d is = 1.9709E-009 n = 0.75561 rs = 4.63881
+ eg = 0.592266 xti = 4 tnom = 27
.ends



**********************************
* Model created by               *
*   Uni.Dipl.-Ing. Arpad Buermen *
*   arpad.burmen@ieee.org        *
* Copyright:                     *
*   Thomatronik GmbH, Germany    *
*   info@thomatronik.de          *
**********************************
* February 2001
*   SPICE3
.subckt bat85 1 2
ddio 1 2 legd
dgr 1 2 grd
.model legd d is = 8.62316E-008 n = 1.15214 rs = 1.48252
+ eg = 0.590979 xti = 2.5
+ cjo = 1.43602E-011 vj = 0.250022 m = 0.365636 fc = 0.5
+ tt = 0.1e-9 bv = 33 ibv = 0.1 af = 1 kf = 0
.model grd d is = 1E-015 n = 1.03925 rs = 0.869
+ eg = 1.18918 xti = 3.5
.ends


**********************************
* Model created by               *
*   Uni.Dipl.-Ing. Arpad Buermen *
*   arpad.burmen@ieee.org        *
* Copyright:                     *
*   Thomatronik GmbH, Germany    *
*   info@thomatronik.de          *
**********************************
* December 2000
*   SPICE3
.MODEL bc848c npn
+ IS = 4.83404E-013 BF = 674.669 NF = 1.13874
+ VAF = 22.2529 IKF = 0.103767
+ BR = 0.245827 NR = 1.27447
+ VAR = 14296.9 IKR = 0.0114156
+ ISE = 7.47307E-013 NE = 1.78426
+ ISC = 4.63267E-020 NC = 2.81345
+ RB = 0.00705326 IRB = 41.9846 RBM = 0.00477826
+ RE = 0.978482 RC = 0.140326
+ XTB = 0.603302 XTI = 1.0692 EG = 1.04084
+ CJE = 1.0036E-011 VJE = 0.567403 MJE = 0.3
+ CJC = 7.84004E-012 VJC = 0.500003 MJC = 0.309758
+ TF = 5.39792E-010 XTF = 9.99051 VTF = 4.71874 ITF = 0.369956
+ XCJC = 0.999481 FC = 0.146886 PTF = 0 TR = 9.49783E-005
+ CJS = 0 VJS = 0.75 MJS = 0.5
+ KF = 9.66754E-013 AF = 1.46811



**********************************
* Model created by               *
*   Uni.Dipl.-Ing. Arpad Buermen *
*   arpad.burmen@ieee.org        *
* Copyright:                     *
*   Thomatronik GmbH, Germany    *
*   info@thomatronik.de          *
**********************************
* December 2000
*   SPICE3
.MODEL bc858c pnp
+ IS = 6.68354E-013 BF = 659.077 NF = 1.25247
+ VAF = 30.4989 IKF = 0.114965
+ BR = 0.306722 NR = 1.42294
+ VAR = 210.877 IKR = 7.5225E-005
+ ISE = 7.74414E-013 NE = 1.97666
+ ISC = 9.38925E-020 NC = 1.72563
+ RB = 0.104478 IRB = 0.0477904 RBM = 0.000471608
+ RE = 1.33718 RC = 0.045818
+ XTB = 0.514995 XTI = 1.13302 EG = 0.846461
+ CJE = 1.31989E-011 VJE = 0.500003 MJE = 0.322264
+ CJC = 1.02065E-011 VJC = 0.5 MJC = 0.381895
+ TF = 8.95949E-010 XTF = 1.15822 VTF = 3.52858 ITF = 1.14192E-006
+ XCJC = 0.033019 FC = 0.126844 PTF = 0 TR = 0.00461308
+ CJS = 0 VJS = 0.75 MJS = 0.5
+ KF = 7.83169E-013 AF = 1.44443



**********************************
* Model created by               *
*   Uni.Dipl.-Ing. Arpad Buermen *
*   arpad.burmen@ieee.org        *
* Copyright:                     *
*   Thomatronik GmbH, Germany    *
*   info@thomatronik.de          *
**********************************
* December 2000
*   SPICE3
.model bym11d100 d is = 2.28832E-005 n = 3.80173 rs = 0.0559245
+ eg = 1.11 xti = 3
+ cjo = 2.36383E-011 vj = 1.87695 m = 0.442798 fc = 0.5
+ tt = 3.69946E-007 bv = 110 ibv = 0.1 af = 1 kf = 0


****************************************
* (c)1999 Thomatronik GmbH             *
*   info@thomatronik.de                *
*                                      *
* Author: Arpad Buermen                *
*   Arpad.Burmen@ieee.org              *
****************************************

.MODEL EGF1D D (
+   N=2.30239
+  IS=3.86441E-007
+  RS=0.0294125
+  EG=1.20997
+ XTI=3.07825
+ CJO=7.36864E-011
+  VJ=0.0856305
+   M=0.288789
+  FC=0.5
+  TT=1.23315E-007
+  BV=200
+ IBV=0.01
+  KF=0
+  AF=1 )


****************************************
* (c)1999 Thomatronik GmbH             *
*   info@thomatronik.de                *
*                                      *
* Author: Arpad Buermen                *
*   Arpad.Burmen@ieee.org              *
****************************************

.MODEL EGP10D D (
+   N=2.30708
+  IS=4.15009E-007
+  RS=0.0297609
+  EG=1.20561
+ XTI=3.07814
+ CJO=4.87901E-011
+  VJ=0.25
+   M=0.264468
+  FC=0.5
+  TT=1.23315E-007
+  BV=200
+ IBV=0.01
+  KF=0
+  AF=1 )


****************************************
* (c)1999 Thomatronik GmbH             *
*   info@thomatronik.de                *
*                                      *
* Author: Arpad Buermen                *
*   Arpad.Burmen@ieee.org              *
****************************************

.MODEL EGP10G D (
+   N=2.84496
+  IS=1.10917E-006
+  RS=0.044804
+  EG=1.44517
+ XTI=3.12357
+ CJO=2.70007E-011
+  VJ=0.588783
+   M=0.246194
+  FC=0.5
+  TT=1.23315E-007
+  BV=400
+ IBV=0.02
+  KF=0
+  AF=1 )


****************************************
* (c)1999 Thomatronik GmbH             *
*   info@thomatronik.de                *
*                                      *
* Author: Arpad Buermen                *
*   Arpad.Burmen@ieee.org              *
****************************************

.MODEL EGP50D D (
+   N=1.74351
+  IS=5.95174E-008
+  RS=0.0104058
+  EG=1.15143
+ XTI=3.06295
+ CJO=2.29062E-010
+  VJ=0.271102
+   M=0.303883
+  FC=0.5
+  TT=1.23315E-007
+  BV=200
+ IBV=0.001
+  KF=0
+  AF=1 )


****************************************
* (c)1999 Thomatronik GmbH             *
*   info@thomatronik.de                *
*                                      *
* Author: Arpad Buermen                *
*   Arpad.Burmen@ieee.org              *
****************************************

.MODEL EGP50G D (
+   N=2.9566
+  IS=4.19093E-006
+  RS=0.0114706
+  EG=1.52586
+ XTI=3.14952
+ CJO=1.58733E-010
+  VJ=1.44534
+   M=0.454334
+  FC=0.5
+  TT=1.23315E-007
+  BV=400
+ IBV=0.1
+  KF=0
+  AF=1 )


****************************************
* (c)1999 Thomatronik GmbH             *
*   info@thomatronik.de                *
*                                      *
* Author: Arpad Buermen                *
*   Arpad.Burmen@ieee.org              *
****************************************

.MODEL ES1D D (
+   N=2.98145
+  IS=2.0135E-005
+  RS=0.0190575
+  EG=1.11
+ XTI=3
+ CJO=9.05163E-012
+  VJ=0.0804142
+   M=0.064307
+  FC=0.5
+  TT=3.69946E-008
+  BV=200
+ IBV=0.2
+  KF=0
+  AF=1 )


ES2
* created by Andreas Bursian, THOMATRONIK, 83022 Rosenheim
* Tel.: -8031-2175-13 ***** Fax.: -8031/2157-30
* date: 31.07.94 18:27
* Model was made for the PSpice Simulator
.MODEL ES2B_P D
 + IS=0.0000005588
 + N=2.03
 + RS=0.005974
 + IKF=5.137
 + XTI=3
 + EG=1.11
 + CJO=0.00000000002317
 + M=0.05708
 + VJ=0.3905
 + FC=0.5
 + ISR=0.0000003548
 + NR=1.927
 +  BV=100
 + IBV=0.000001
 + TT=0.00000002718


**********************************
* Model created by               *
*   Uni.Dipl.-Ing. Arpad Buermen *
*   arpad.burmen@ieee.org        *
* Copyright:                     *
*   Thomatronik GmbH, Germany    *
*   info@thomatronik.de          *
**********************************
* March 2001
*   SPICE3
* Forward direction: node 1 -> node 5
.subckt es2g 1 5
d1 1 2 dmod1
.model dmod1 d is = 1.00318E-015 n = 1.18788
+ eg = 1.2313 xti = 3.49979
+ cjo = 1.72169E-011 vj = 2.37492 m = 0.25 fc = 0.5
g1 1 2 100 0 0.000136778
rs 2 3 0.0106098
b1 3 4 v = 25.2 * i(vs2) / ( abs ( v(51) * 12.6 / v(30) ) + 1 )
vs2 4 5 0
h2 50 0 vs1 3.74166
rtf1 50 51 10000
ctf 51 0 1.44E-010
rtf2 51 0 1E+007
e1 20 0 1 2 1
vs4 20 21 0
d2 21 0 dmod2
.model dmod2 d is = 1.1198E-005 n = 2.37576
+ eg = 1.2313 xti = 3.49948
i1 0 30 1e-3
r1 30 0 25.86417 rmod
.model rmod r tc1=3.331667e-003 tc2=0 tnom=27
h1 40 0 vs4 7311.1
rt1 40 100 27355.6
rt2 100 41 1953.97
l1 41 42 0.000136778
vs1 42 0 0
dbv1 1 200 bvmod
dbv2 5 200 bvmod
.model bvmod d is = 1E-009 n = 2 rs = 0.01 bv = 440 ibv = 0.2
rl 5 1 3.59189E+007 rlmod
.model rlmod r tc1 = -0.0075 tc2 = 0 tnom = 25
.ends


****************************************
* (c)1999 Thomatronik GmbH             *
*   info@thomatronik.de                *
*                                      *
* Author: Arpad Buermen                *
*   Arpad.Burmen@ieee.org              *
****************************************

.MODEL ES3D D (
+   N=2.08026
+  IS=1.37237E-006
+  RS=0.0239639
+  EG=1.11
+ XTI=3
+ CJO=9.67929E-011
+  VJ=0.25
+   M=0.284092
+  FC=0.5
+  TT=4.93261E-008
+  BV=200
+ IBV=0.02
+  KF=0
+  AF=1 )



****************************************
* (c)1999 Thomatronik GmbH             *
*   info@thomatronik.de                *
*                                      *
* Author: Arpad Buermen                *
*   Arpad.Burmen@ieee.org              *
****************************************

.MODEL ES3G D (
+   N=2.69389
+  IS=1.25971E-005
+  RS=0.00412252
+  EG=1.11
+ XTI=3
+ CJO=4.1276E-011
+  VJ=0.558001
+   M=0.164583
+  FC=0.5
+  TT=8.63206E-008
+  BV=400
+ IBV=0.2
+  KF=0
+  AF=1 )


****************************************
* (c)1999 Thomatronik GmbH             *
*   info@thomatronik.de                *
*                                      *
* Author: Arpad Buermen                *
*   Arpad.Burmen@ieee.org              *
****************************************

* Diode 1: nodes 1 and 2
* Diode 2: nodes 3 and 2

.SUBCKT FEP16DT 1 2 3
D1 1 2 LEGD
D2 3 2 LEGD
.MODEL LEGD D (
+   N=2.19208
+  IS=4.77901E-006
+  RS=0.00507912
+  EG=1.05256
+ XTI=3.06339
+ CJO=1.89436E-010
+  VJ=0.595461
+   M=0.416973
+  FC=0.5
+  TT=8.63206E-008
+  BV=200
+ IBV=0.05
+  KF=0
+  AF=1 )
.ENDS


**********************************
* Model created by               *
*   Uni.Dipl.-Ing. Arpad Buermen *
*   arpad.burmen@ieee.org        *
* Copyright:                     *
*   Thomatronik GmbH, Germany    *
*   info@thomatronik.de          *
**********************************
*   SPICE3
.model fes16gt d is = 9.18249E-006 n = 2.87442 rs = 0.00352225
+ eg = 1.29002 xti = 3.87546 tnom = 27
+ cjo = 3.75068E-010 vj = 0.700001 m = 0.406785 fc = 0.5
+ tt = 4.93261E-008 bv = 440 ibv = 15 af = 1 kf = 0


**********************************
* Model created by               *
*   Uni.Dipl.-Ing. Arpad Buermen *
*   arpad.burmen@ieee.org        *
* Copyright:                     *
*   Thomatronik GmbH, Germany    *
*   info@thomatronik.de          *
**********************************
* December 2000
*   SPICE3
.model mbr0540 d is = 9.11035E-006 n = 1.33753 rs = 0.120933
+ eg = 0.69 xti = 2
+ cjo = 1.9378E-010 vj = 0.250053 m = 0.398352 fc = 0.5
+ tt = 1.4427E-009 bv = 44 ibv = 0.05 af = 1 kf = 0


**********************************
* Model created by               *
*   Uni.Dipl.-Ing. Arpad Buermen *
*   arpad.burmen@ieee.org        *
* Copyright:                     *
*   Thomatronik GmbH, Germany    *
*   info@thomatronik.de          *
**********************************
* May 2001
*   SPICE3
* Forward direction: 1 -> 2
.subckt mbr10h100 1 2
ddio 1 2 legd
dgr 1 2 grd
.model legd d is = 1.33794E-007 n = 1.56268 rs = 0.00559469
+ eg = 1.03421 xti = 3.99998
+ cjo = 1.07835E-009 vj = 0.639913 m = 0.469475 fc = 0.5
+ tt = 1.4427E-009 bv = 110 ibv = 8 af = 1 kf = 0
.model grd d is = 1.34945E-007 n = 1.16898 rs = 0.0346856
+ eg = 0.765938 xti = 3.91054
.ends


**********************************
* Model created by               *
*   Uni.Dipl.-Ing. Arpad Buermen *
*   arpad.burmen@ieee.org        *
* Copyright:                     *
*   Thomatronik GmbH, Germany    *
*   info@thomatronik.de          *
**********************************
* May 2001
*   SPICE3
* Diode 1, forward direction: 1 -> 2
* Diode 2, forward direction: 3 -> 2
.subckt mbr10h100ct 1 2 3
ddio1 1 2 legd
dgr1 1 2 grd
ddio2 3 2 legd
dgr2 3 2 grd
.model legd d is = 8.70909E-012 n = 1.14276 rs = 0.00755343
+ eg = 1.1688 xti = 4
+ cjo = 7.03566E-010 vj = 0.430248 m = 0.447657 fc = 0.5
+ tt = 1.4427E-009 bv = 110 ibv = 0.1 af = 1 kf = 0
.model grd d is = 1.46329E-006 n = 1.50452 rs = 0.0278637
+ eg = 0.780071 xti = 4
.ends


****************************************
* (c)2000 Thomatronik GmbH             *
*   info@thomatronik.de                *
*                                      *
* Author: Arpad Buermen                *
*   Arpad.Buermen@fe.uni-lj.si         *
****************************************

.SUBCKT MBR4045PT 1 2 3
.MODEL DIO D(
+   N=1.14842
+  IS=8.11831E-006
+  RS=0.00848623
+  EG=0.637858
+ XTI=2.08364
+ CJO=2.90353E-009
+  VJ=0.502988
+   M=0.446262
+  FC=0.5
+  TT=1.4427E-009
+  BV=45
+ IBV=0.001
+  KF=0
+  AF=1 )

.MODEL GR D(
+   N=1.99794
+  IS=1.00014E-012
+  RS=0.01
+  EG=1.11084
+ XTI=3.00018 )

DD1 1 2 DIO
DG1 1 2 GR
DD2 3 2 DIO
DG2 3 2 GR
.ENDS


****************************************
* (c)2000 Thomatronik GmbH             *
*   info@thomatronik.de                *
*                                      *
* Author: Arpad Buermen                *
*   Arpad.Buermen@fe.uni-lj.si         *
****************************************

.SUBCKT MBR4060PT 1 2 3
.MODEL DIO D(
+   N=1.40529
+  IS=1.7648E-005
+  RS=0.0101444
+  EG=0.689197
+ XTI=2.0719
+ CJO=1.73602E-009
+  VJ=0.373164
+   M=0.402288
+  FC=0.5
+  TT=1.4427E-009
+  BV=60
+ IBV=0.001
+  KF=0
+  AF=1 )

.MODEL GR D(
+   N=1.99633
+  IS=1.00019E-012
+  RS=0.01
+  EG=1.11111
+ XTI=3.00025 )

DD1 1 2 DIO
DG1 1 2 GR
DD2 3 2 DIO
DG2 3 2 GR
.ENDS


****************************************
* (c)2000 Thomatronik GmbH             *
*   info@thomatronik.de                *
*                                      *
* Author: Arpad Buermen                *
*   Arpad.Buermen@fe.uni-lj.si         *
****************************************

.SUBCKT MBR745 1 2
.MODEL DIO D(
+   N=1.26803
+  IS=6.69366E-006
+  RS=0.0133035
+  EG=0.767148
+ XTI=2.06139
+ CJO=8.35628E-010
+  VJ=0.574325
+   M=0.447529
+  FC=0.5
+  TT=1.4427E-009
+  BV=45
+ IBV=0.0001
+  KF=0
+  AF=1 )

.MODEL GR D(
+   N=1.97425
+  IS=1.00072E-012
+  RS=0.01
+  EG=1.11121
+ XTI=3.00027 )

DD 1 2 DIO
DG 1 2 GR
.ENDS


****************************************
* (c)2000 Thomatronik GmbH             *
*   info@thomatronik.de                *
*                                      *
* Author: Arpad Buermen                *
*   Arpad.Buermen@fe.uni-lj.si         *
****************************************

.SUBCKT MBR760 1 2
.MODEL DIO D(
+   N=1.35454
+  IS=5.04569E-006
+  RS=0.0294402
+  EG=0.734311
+ XTI=2.04495
+ CJO=6.45753E-010
+  VJ=0.900614
+   M=0.516774
+  FC=0.5
+  TT=1.4427E-009
+  BV=60
+ IBV=0.0005
+  KF=0
+  AF=1 )

.MODEL GR D(
+   N=1.02324
+  IS=1.00552E-012
+  RS=0.0165043
+  EG=1.00418
+ XTI=2.99065 )

DD 1 2 DIO
DG 1 2 GR
.ENDS


**********************************
* Model created by               *
*   Uni.Dipl.-Ing. Arpad Buermen *
*   arpad.burmen@ieee.org        *
* Copyright:                     *
*   Thomatronik GmbH, Germany    *
*   info@thomatronik.de          *
**********************************
* March 2001
*   SPICE3
* 1,2 ... anode
* 3   ... common cathode
.subckt mbrb1545ct 1 2 3
ddio1 1 3 legd
dgr1 1 3 grd
ddio2 2 3 legd
dgr2 2 3 grd
.model legd d is = 1E-015 n = 0.666307 rs = 0.0231544
+ eg = 0.776686 xti = 3.25063
+ cjo = 8.81801E-010 vj = 0.411639 m = 0.453203 fc = 0.5
+ tt = 1.4427E-009 bv = 49.5 ibv = 0.1 af = 1 kf = 0
.model grd d is = 3.22668E-006 n = 1.16113 rs = 0.0200099
+ eg = 0.774812 xti = 1.33691
.ends


**********************************
* Model created by               *
*   Uni.Dipl.-Ing. Arpad Buermen *
*   arpad.burmen@ieee.org        *
* Copyright:                     *
*   Thomatronik GmbH, Germany    *
*   info@thomatronik.de          *
**********************************
* February 2001
*   SPICE3
.model rgp02d20e d is = 1.14521E-007 n = 4.5 rs = 0.408496
+ eg = 1.11 xti = 3
+ cjo = 7.5386E-012 vj = 1.47064 m = 0.299177 fc = 0.5
+ tt = 7.39891E-007 bv = 2200 ibv = 0.1 af = 1 kf = 0


**********************************
* Model created by               *
*   Uni.Dipl.-Ing. Arpad Buermen *
*   arpad.burmen@ieee.org        *
* Copyright:                     *
*   Thomatronik GmbH, Germany    *
*   info@thomatronik.de          *
**********************************
* June 2001
*   SPICE3
.model rgp10m d is = 2.041E-005 n = 4 rs = 0.0484268
+ eg = 1.47178 xti = 4
+ cjo = 2.81505E-011 vj = 0.424608 m = 0.330001 fc = 0.5
+ tt = 1.23315E-006 bv = 1100 ibv = 4.0 af = 1 kf = 0


****************************************
* (c)1999 Thomatronik GmbH             *
*   info@thomatronik.de                *
*                                      *
* Author: Arpad Buermen                *
*   Arpad.Burmen@ieee.org              *
****************************************

.MODEL RS1G D (
+   N=3.84579
+  IS=1.61605E-005
+  RS=0.0419308
+  EG=1.52509
+ XTI=3.12933
+ CJO=2.60624E-011
+  VJ=0.301597
+   M=0.370376
+  FC=0.5
+  TT=3.69946E-007
+  BV=400
+ IBV=0.5
+  KF=0
+  AF=1 )


****************************************
* (c)1999 Thomatronik GmbH             *
*   info@thomatronik.de                *
*                                      *
* Author: Arpad Buermen                *
*   Arpad.Burmen@ieee.org              *
****************************************

.MODEL RS1K D (
+   N=3.84579
+  IS=1.61605E-005
+  RS=0.0419308
+  EG=1.52509
+ XTI=3.12933
+ CJO=1.56708E-011
+  VJ=0.331261
+   M=0.295263
+  FC=0.5
+  TT=1.23315E-006
+  BV=800
+ IBV=0.5
+  KF=0
+  AF=1 )


**********************************
* Model created by               *
*   Uni.Dipl.-Ing. Arpad Buermen *
*   arpad.burmen@ieee.org        *
* Copyright:                     *
*   Thomatronik GmbH, Germany    *
*   info@thomatronik.de          *
**********************************
* March 2001
*   SPICE3
.model s3d d is = 5.1225E-009 n = 1.82445 rs = 0.00929703
+ eg = 1.11 xti = 3
+ cjo = 1.7676E-010 vj = 0.250039 m = 0.38477 fc = 0.5
+ tt = 6.16576E-006 bv = 220 ibv = 0.01 af = 1 kf = 0


****************************************
* (c)1999 Thomatronik GmbH             *
*   info@thomatronik.de                *
*                                      *
* Author: Arpad Buermen                *
*   Arpad.Burmen@ieee.org              *
****************************************

.MODEL SB040 D (
+   N=3.00905
+  IS=0.000876513
+  RS=0.0331322
+  EG=0.69
+ XTI=2
+ CJO=1.10349E-010
+  VJ=0.664822
+   M=0.502061
+  FC=0.5
+  TT=1.4427E-009
+  BV=40
+ IBV=2
+  KF=0
+  AF=1 )


**********************************
* Model created by               *
*   Uni.Dipl.-Ing. Arpad Buermen *
*   arpad.burmen@ieee.org        *
* Copyright:                     *
*   Thomatronik GmbH, Germany    *
*   info@thomatronik.de          *
**********************************
* December 2000
*   SPICE3
.subckt sb140 1 2
ddio 1 2 legd
dgr 1 2 grd
.model legd d is = 2.41774E-006 n = 2.5213 rs = 0.0180036
+ eg = 1.8 xti = 3.9996
+ cjo = 2.92263E-010 vj = 1.79059 m = 0.67056 fc = 0.5
+ tt = 1.4427E-009 bv = 44 ibv = 5 af = 1 kf = 0
.model grd d is = 4.84085E-006 n = 1.00268 rs = 0.0661033
+ eg = 0.400002 xti = 3
.ends


**********************************
* Model created by               *
*   Uni.Dipl.-Ing. Arpad Buermen *
*   arpad.burmen@ieee.org        *
* Copyright:                     *
*   Thomatronik GmbH, Germany    *
*   info@thomatronik.de          *
**********************************
* December 2000
*   SPICE3
.subckt sb160 1 2
ddio 1 2 legd
dgr 1 2 grd
.model legd d is = 1.12267E-005 n = 1.70097 rs = 0.054986
+ eg = 0.453686 xti = 3.95373
+ cjo = 2.17446E-010 vj = 0.929504 m = 0.523842 fc = 0.5
+ tt = 1.4427E-009 bv = 66 ibv = 0.95 af = 1 kf = 0
.model grd d is = 2.24535E-005 n = 3.29614 rs = 0.00882619
+ eg = 1.8 xti = 3
.ends


**********************************
* Model created by               *
*   Uni.Dipl.-Ing. Arpad Buermen *
*   arpad.burmen@ieee.org        *
* Copyright:                     *
*   Thomatronik GmbH, Germany    *
*   info@thomatronik.de          *
**********************************
* May 2001
*   SPICE3
* Forward direction: 1 -> 2
.subckt sb2h100 1 2
ddio 1 2 legd
dgr 1 2 grd
.model legd d is = 7.55898E-011 n = 1.42857 rs = 0.0179482
+ eg = 1.50167 xti = 0.5
+ cjo = 2.01912E-010 vj = 0.482094 m = 0.430815 fc = 0.5
+ tt = 1.4427E-009 bv = 110 ibv = 0.2 af = 1 kf = 0
.model grd d is = 1.35955E-005 n = 1.95241 rs = 0.0738416
+ eg = 0.745064 xti = 3.99955
.ends


**********************************
* Model created by               *
*   Uni.Dipl.-Ing. Arpad Buermen *
*   arpad.burmen@ieee.org        *
* Copyright:                     *
*   Thomatronik GmbH, Germany    *
*   info@thomatronik.de          *
**********************************
* June 2001
*   SPICE3
.subckt sb2h90 1 2
ddio 1 2 legd
dgr 1 2 grd
.model legd d is = 3.80612E-015 n = 3.99484 rs = 4.29298
+ eg = 1.6638 xti = 3.97985
+ cjo = 2.02063E-010 vj = 0.481172 m = 0.430804 fc = 0.5
+ tt = 1.4427E-009 bv = 99 ibv = 0.01 af = 1 kf = 0
.model grd d is = 1.61355E-005 n = 2.29823 rs = 0.0150154
+ eg = 1.06466 xti = 0.5
.ends


**********************************
* Model created by               *
*   Uni.Dipl.-Ing. Arpad Buermen *
*   arpad.burmen@ieee.org        *
* Copyright:                     *
*   Thomatronik GmbH, Germany    *
*   info@thomatronik.de          *
**********************************
* May 2001
*   SPICE3
* Forward direction: 1 -> 2
.subckt sb3h100 1 2
ddio 1 2 legd
dgr 1 2 grd
.model legd d is = 3.41542E-008 n = 1.75209 rs = 0.00724936
+ eg = 1.35816 xti = 0.5
+ cjo = 3.50706E-010 vj = 0.526428 m = 0.477227 fc = 0.5
+ tt = 1.4427E-009 bv = 110 ibv = 2.5 af = 1 kf = 0
.model grd d is = 5.52848E-007 n = 1.52499 rs = 0.0460489
+ eg = 0.902411 xti = 0.500148
.ends


****************************************
* (c)2000 Thomatronik GmbH             *
*   info@thomatronik.de                *
*                                      *
* Author: Arpad Buermen                *
*   Arpad.Buermen@fe.uni-lj.si         *
****************************************

.SUBCKT SB540 1 2
.MODEL DIO D(
+   N=0.590551
+  IS=9.20153E-009
+  RS=0.041309
+  EG=0.69
+ XTI=8.18961E-005
+ CJO=1.26418E-009
+  VJ=0.827749
+   M=0.456431
+  FC=0.5
+  TT=1.4427E-009
+  BV=40
+ IBV=0.01
+  KF=0
+  AF=1 )

.MODEL GR D(
+   N=0.824869
+  IS=1.11945E-012
+  RS=0.0137677
+  EG=1.08758
+ XTI=2.99654 )

DD 1 2 DIO
DG 1 2 GR
.ENDS


****************************************
* (c)2000 Thomatronik GmbH             *
*   info@thomatronik.de                *
*                                      *
* Author: Arpad Buermen                *
*   Arpad.Buermen@fe.uni-lj.si         *
****************************************

.SUBCKT SB560 1 2
.MODEL DIO D(
+   N=1.09755
+  IS=5.51411E-007
+  RS=0.0425717
+  EG=0.656024
+ XTI=2.04158
+ CJO=1.08891E-009
+  VJ=0.279874
+   M=0.345573
+  FC=0.5
+  TT=1.4427E-009
+  BV=60
+ IBV=0.0005
+  KF=0
+  AF=1 )

.MODEL GR D(
+   N=1.03547
+  IS=1.30736E-012
+  RS=0.00880338
+  EG=1.15943
+ XTI=3.01552 )

DD 1 2 DIO
DG 1 2 GR
.ENDS


****************************************
* (c)1999 Thomatronik GmbH             *
*   info@thomatronik.de                *
*                                      *
* Author: Arpad Buermen                *
*   Arpad.Burmen@ieee.org              *
****************************************

* Diode 1: nodes 1 and 2
* Diode 2: nodes 3 and 2

.SUBCKT SBL4040PT 1 2 3
D1 1 2 LEGD
D2 3 2 LEGD
.MODEL LEGD D (
+   N=1.37716
+  IS=0.000104271
+  RS=0.00440842
+  EG=0.733534
+ XTI=2.0271
+ CJO=2.97377E-009
+  VJ=0.454391
+   M=0.443073
+  FC=0.5
+  TT=1.4427E-009
+  BV=40
+ IBV=0.5
+  KF=0
+  AF=1 )
.ENDS


****************************************
* (c)1999 Thomatronik GmbH             *
*   info@thomatronik.de                *
*                                      *
* Author: Arpad Buermen                *
*   Arpad.Burmen@ieee.org              *
****************************************

.SUBCKT SD101A 1 2
.MODEL SD D (
+   N=1.70463
+  IS=1.55043E-007
+  RS=31.5955
+  EG=0.69
+ XTI=2 
+ CJO=2E-012
+  VJ=0.314625
+   M=0.188302
+  FC=0.5
+  TT=1.4427E-009
+  BV=60
+ IBV=0.001
+  KF=0
+  AF=1 )
.MODEL PND D (
+   N=2.01276
+  IS=2.08639E-009
+  RS=0.577781
+  EG=1.11
+ XTI=3 )
D1 1 2 SD
D2 1 2 PND
.ENDS


****************************************
* (c)1999 Thomatronik GmbH             *
*   info@thomatronik.de                *
*                                      *
* Author: Arpad Buermen                *
*   Arpad.Burmen@ieee.org              *
****************************************

.SUBCKT SD103A 1 2
.MODEL SD D (
+   N=1.08982
+  IS=1.94544E-007
+  RS=0.704401
+  EG=0.69
+ XTI=2 
+ CJO=5E-011
+  VJ=0.144129
+   M=0.431697
+  FC=0.5
+  TT=1.4427E-008
+  BV=40
+ IBV=0.001
+  KF=0
+  AF=1 )
.MODEL PND D (
+   N=4.55878
+  IS=0.000271362
+  RS=0.047093
+  EG=1.11
+ XTI=3 )
D1 1 2 SD
D2 1 2 PND
.ENDS


**********************************
* Model created by               *
*   Uni.Dipl.-Ing. Arpad Buermen *
*   arpad.burmen@ieee.org        *
* Copyright:                     *
*   Thomatronik GmbH, Germany    *
*   info@thomatronik.de          *
**********************************
* February 2001
*   SPICE3
.subckt sd103c 1 2
ddio 1 2 legd
dgr 1 2 grd
.model legd d is = 3.38598E-007 n = 1.19055 rs = 0.525634
+ eg = 0.687538 xti = 2.0207
+ cjo = 3.70762E-011 vj = 0.393566 m = 0.466543 fc = 0.5
+ tt = 1.4427E-008 bv = 22 ibv = 0.1 af = 1 kf = 0
.model grd d is = 1E-009 n = 1.72045 rs = 0.110509
+ eg = 1.10627 xti = 3.02707
.ends


****************************************
* (c)1999 Thomatronik GmbH             *
*   info@thomatronik.de                *
*                                      *
* Author: Arpad Buermen                *
*   Arpad.Burmen@ieee.org              *
****************************************

.MODEL SL13 D (
+   N=1.62722
+  IS=2.70884E-005
+  RS=0.022326
+  EG=0.877137
+ XTI=2.0278
+ CJO=4.73821E-010
+  VJ=0.651969
+   M=0.516077
+  FC=0.5
+  TT=1.4427E-009
+  BV=30
+ IBV=0.05
+  KF=0
+  AF=1 )


****************************************
* (c)1999 Thomatronik GmbH             *
*   info@thomatronik.de                *
*                                      *
* Author: Arpad Buermen                *
*   Arpad.Burmen@ieee.org              *
****************************************

.MODEL SL23 D (
+   N=1.26262
+  IS=1.55836E-005
+  RS=0.0164204
+  EG=0.721708
+ XTI=2.01648
+ CJO=9.95085E-010
+  VJ=0.479367
+   M=0.474828
+  FC=0.5
+  TT=1.4427E-009
+  BV=30
+ IBV=0.05
+  KF=0
+  AF=1 )


****************************************
* (c)2000 Thomatronik GmbH             *
*   info@thomatronik.de                *
*                                      *
* Author: Arpad Buermen                *
*   Arpad.Buermen@fe.uni-lj.si         *
****************************************

.MODEL SL44 D(
+   N=1.30464
+  IS=9.39389E-005
+  RS=0.00887496
+  EG=0.661056
+ XTI=3.04726
+ CJO=3.19877E-009
+  VJ=4.22076
+   M=0.85
+  FC=0.5
+  TT=1.4427E-009
+  BV=40
+ IBV=0.0005
+  KF=0
+  AF=1 )


**********************************
* Model created by               *
*   Uni.Dipl.-Ing. Arpad Buermen *
*   arpad.burmen@ieee.org        *
* Copyright:                     *
*   Thomatronik GmbH, Germany    *
*   info@thomatronik.de          *
**********************************
*   SPICE3
.subckt ss24 1 2
ddio 1 2 legd
dgr 1 2 grd
.model legd d is = 3.87073E-013 n = 1.25745 rs = 0.0106321
+ eg = 1.79997 xti = 4
+ cjo = 4.82368E-010 vj = 1.09383 m = 0.473141 fc = 0.5
+ tt = 1.4427E-009 bv = 44 ibv = 0.1 af = 1 kf = 0
.model grd d is = 3.68741E-005 n = 1.4813 rs = 0.028536
+ eg = 0.73394 xti = 3.28639
.ends


**********************************
* Model created by               *
*   Uni.Dipl.-Ing. Arpad Buermen *
*   arpad.burmen@ieee.org        *
* Copyright:                     *
*   Thomatronik GmbH, Germany    *
*   info@thomatronik.de          *
**********************************
*   SPICE3
.subckt ss26 1 2
ddio 1 2 legd
dgr 1 2 grd
.model legd d is = 1E-015 n = 1.16314 rs = 0.00850939
+ eg = 1.8 xti = 4
+ cjo = 3.9907E-010 vj = 0.999614 m = 0.485293 fc = 0.5
+ tt = 1.4427E-009 bv = 66 ibv = 0.1 af = 1 kf = 0
.model grd d is = 6.46582E-005 n = 1.79066 rs = 0.0204223
+ eg = 0.755351 xti = 1.38933
.ends


**********************************
* Model created by               *