**********
* Copyright Intusoft 1988-1997
* All Rights Reserved
**********
**********
*SRC=2N6667;QN6667;BJTs PNP;Darlington;60V 10A
*SYM=DARBJTP
.SUBCKT QN6667   1 2 3
*    TERMINALS:  C B E
Q1 1 2 4 QPWR .1
Q2 1 4 3 QPWR
R1 2 4  8K
R2 4 3  120
D1 1 3  DSUB
.MODEL QPWR PNP (IS=12P NF=1 BF=156 VAF=139 IKF=5.5
+ ISE=21.2P NE=2 BR=4 NR=1 VAR=20 IKR=8.25 RE=.115 RB=.46
+ RC=46M XTB=1.5 CJE=22.30N CJC=264P TF=5.5P TR=500N)
.MODEL DSUB D (IS=12P N=1 RS=.115 BV=60 IBV=.001
+ CJO=264P TT=570N)
.ENDS
*   60 Volt  10 Amp  PNP Darlington Transistor  01-11-1991
**********
*SRC=2N6668;QN6668;BJTs PNP;Darlington;80V 10A
*SYM=DARBJTP
.SUBCKT QN6668   1 2 3
*    TERMINALS:  C B E
Q1 1 2 4 QPWR .1
Q2 1 4 3 QPWR
R1 2 4  8K
R2 4 3  120
D1 1 3  DSUB
.MODEL QPWR PNP (IS=12P NF=1 BF=156 VAF=160 IKF=5.5
+ ISE=21.2P NE=2 BR=4 NR=1 VAR=20 IKR=8.25 RE=.115 RB=.46
+ RC=46M XTB=1.5 CJE=22.30N CJC=264P TF=5.5P TR=500N)
.MODEL DSUB D (IS=12P N=1 RS=.115 BV=80 IBV=.001
+ CJO=264P TT=570N)
.ENDS
*   80 Volt  10 Amp  PNP Darlington Transistor  01-11-1991
**********
*SRC=BU323;BU323;BJTs NPN;Darlington;350V 10A
*SYM=DARBJTN
.SUBCKT BU323    1 2 3
*    TERMINALS:  C B E
Q1 1 2 4 QPWR .1
Q2 1 4 3 QPWR
R1 2 4  1K
R2 4 3  30
D1 3 1  DSUB
.MODEL QPWR NPN (IS=12P NF=1 BF=34.8 VAF=336 IKF=6.5
+ ISE=21.2P NE=2 BR=4 NR=1 VAR=32 IKR=9.75 RE=.1 RB=.4
+ RC=40M XTB=1.5 CJE=1.82N CJC=397P TF=3.25N TR=4.5U)
.MODEL DSUB D (IS=12P N=1 RS=.1 BV=350 IBV=.001
+ CJO=397P TT=4.5U)
.ENDS
*   350 Volt  10 Amp  NPN Darlington Transistor  01-11-1991
**********
*SRC=BU323P;BU323P;BJTs NPN;Darlington;200V 50A
*SYM=DARBJTN
.SUBCKT BU323P   1 2 3
*    TERMINALS:  C B E
Q1 1 2 4 QPWR .1
Q2 1 4 3 QPWR
R1 2 4  1K
R2 4 3  30
D1 3 1  DSUB
.MODEL QPWR NPN (IS=12P NF=1 BF=99.8 VAF=160 IKF=10
+ ISE=21.2P NE=2 BR=4 NR=1 VAR=20 IKR=15 RE=40M RB=.16
+ RC=40M XTB=1.5 CJE=1.82N CJC=397P TF=5.00P TR=4.5U)
.MODEL DSUB D (IS=60P N=1 RS=.1 BV=200 IBV=.001
+ CJO=397P TT=4.5U)
.ENDS
*   200 Volt  50 Amp  NPN Darlington Transistor  01-11-1991
**********
*SRC=MJ10005;MJ10005;BJTs NPN;Darlington;400V 20A
*SYM=DARBJTN
.SUBCKT MJ10005  1 2 3
*    TERMINALS:  C B E
Q1 1 2 4 QPWR .1
Q2 1 4 3 QPWR
R1 2 4  100
R2 4 3  10
D1 3 1  DSUB
D2 4 2  DSUB .01
.MODEL QPWR NPN (IS=24P NF=1.1 BF=18.4 VAF=360 IKF=15
+ ISE=42.4P NE=2 BR=4 NR=1 VAR=32 IKR=22.5 RE=47.5M RB=.22M
+ RC=22.5M XTB=1.5 CJE=210N CJC=45900P TF=30N TR=160N)
.MODEL DSUB D (IS=24P N=1 RS=56.2M BV=400 IBV=.001
+ CJO=190P TT=360N)
.ENDS
*   400 Volt  20 Amp  NPN Darlington Transistor  01-08-1991
**********
*SRC=BUT50P;BUT50P;BJTs NPN;Darlington;500V 8A
*SYM=DARBJTN
.SUBCKT BUT50P   1 2 3
*    TERMINALS:  C B E
Q1 1 2 4 QPWR .1
Q2 1 4 3 QPWR
R1 2 4  100K
R2 4 3  15
D1 3 1  DSUB
D2 4 2  DSUB .01
.MODEL QPWR NPN (IS=9.59P NF=1 BF=270 VAF=402 IKF=2
+ ISE=16.9P NE=2 BR=4 NR=1 VAR=32 IKR=3 RE=.143 RB=.575
+ RC=57.5M XTB=1.5 CJE=886P CJC=192P TF=200N TR=450N)
.MODEL DSUB D (IS=9.59P N=1 RS=.143 BV=500 IBV=.001
+ CJO=192P TT=450N)
.ENDS
*   500 Volt  8 Amp  NPN Darlington Transistor  01-03-1991
**********
*SRC=KS621K60;KS621K60;BJTs NPN;Darlington;1000V 600A
*SYM=DARBJTN
.SUBCKT KS621K60 1 2 3
*    TERMINALS:  C B E
Q1 1 2 4 QPWR .1
Q2 1 4 3 QPWR
R1 2 4  8K
R2 4 3  5.18
D1 3 1  DSUB
D2 4 2  DSUB .01
.MODEL QPWR NPN (IS=719P NF=1 BF=44.1 VAF=569 IKF=500
+ ISE=1.27N NE=2 BR=4 NR=1 VAR=28 RE=1.5M RB=6M RC=600U
+ XTB=1.5 CJE=73.1N CJC=15.8N TF=5.50P TR=7.5U)
.MODEL DSUB D (IS=719P N=1 RS=1.5M BV=1K IBV=.001
+ CJO=15.8N TT=7.5U)
.ENDS
*   1000 Volt  600 Amp  NPN Darlington Transistor  09-01-1990
**********
*SRC=MMBTA13;MMBTA13;BJTs NPN;Darlington;30V 300mA
*SYM=DARBJTN
.SUBCKT MMBTA13  1 2 3
*    TERMINALS:  C B E
Q1 1 2 4 QPWR .1
Q2 1 4 3 QPWR
.MODEL QPWR NPN (IS=360F NF=1 BF=349 VAF=98.6 IKF=.5 ISE=637F NE=2
+ BR=4 NR=1 VAR=40 IKR=.75 RE=3.5 RB=14 RC=1.4 XTB=1.5
+ CJE=133P VJE=.74 MJE=.45 CJC=14.1P VJC=1.1 MJC=.24 TF=1.27323N TR=17.4N)
.MODEL DSUB D (IS=360F N=1 RS=3.5 BV=30 IBV=.001
+ CJO=14.1P TT=17.4N)
.ENDS
*  30 Volt  .3 Amp  NPN Darlington Transistor  11-29-1990
**********
*SRC=MMBTA14;MMBTA14;BJTs NPN;Darlington;30V 300mA
*SYM=DARBJTN
.SUBCKT MMBTA14  1 2 3
*    TERMINALS:  C B E
Q1 1 2 4 QPWR .1
Q2 1 4 3 QPWR
.MODEL QPWR NPN (IS=360F NF=1 BF=382 VAF=98.6 IKF=.55 ISE=637F NE=2
+ BR=4 NR=1 VAR=40 IKR=.825 RE=3.5 RB=14 RC=1.4 XTB=1.5
+ CJE=133P VJE=.74 MJE=.45 CJC=14.1P VJC=1.1 MJC=.24 TF=1.27323N TR=17.4N)
.MODEL DSUB D (IS=360F N=1 RS=3.5 BV=30 IBV=.001
+ CJO=14.1P TT=17.4N)
.ENDS
*  30 Volt  .3 Amp  NPN Darlington Transistor  11-29-1990
**********
*SRC=KS624540;KS624540;BJTs NPN;Darlington;450V 400A
*SYM=DARBJTN
.SUBCKT KS624540 1 2 3
*    TERMINALS:  C B E
Q1 1 2 4 QPWR .1
Q2 1 4 3 QPWR
R1 2 4  8K
R2 4 3  4
D1 3 1  DSUB
D2 4 2  DSUB .01
.MODEL QPWR NPN (IS=420P NF=1.22 BF=68.6 VAF=81 IKF=250
+ ISE=789P NE=2 BR=4 NR=1 VAR=28 IKR=450 RE=.907M RB=4.47M
+ RC=150U XTB=1.5 CJE=48.7N CJC=10.5N TF=2P TR=6U)
.MODEL DSUB D (IS=68N N=1.72 RS=1.02M BV=450 IBV=.001
+ CJO=10.5N TT=6U)
.ENDS
*   450 Volt  400 Amp  NPN Darlington Transistor  12-13-1990
*   Powerex
**********
*SRC=BU806;BU806;BJTs NPN;Darlington;200V 8A
*SYM=DARBJTN
.SUBCKT BU806    1 2 3
*    TERMINALS:  C B E
Q1 1 2 4 QPWR .1
Q2 1 4 3 QPWR
R1 2 4  8K
R2 4 3  44.9
D1 3 1  DSUB
D2 4 2  DSUB .01
.MODEL QPWR NPN (IS=9.6P NF=1 BF=854 VAF=254 IKF=12 ISE=17P NE=2
+ BR=4 NR=1 VAR=24 IKR=18 RE=80M RB=.32 RC=32M XTB=1.5
+ CJE=1.07N VJE=.74 MJE=.45 CJC=155P VJC=1.1 MJC=.24 TF=22.2N TR=130N)
.MODEL DSUB D (IS=9.6P N=1 RS=80M BV=200 IBV=.001
+ CJO=155P TT=330N)
.ENDS
*  200 Volt  8 Amp  NPN Darlington Transistor  09-04-1991
**********
*SRC=2N6040;QN6040;BJTs PNP;Darlington;60V 8A
*SYM=DARBJTP
.SUBCKT QN6040   1 2 3
*    TERMINALS:  C B E
* Motorola 60 Volt  8 Amp  PNP Darlington Transistor  08-02-1993
Q1 1 2 4 QPWR .1
Q2 1 4 3 QPWR
R1 2 4  8K
R2 4 3  120
D1 1 3  DSUB
.MODEL QPWR PNP (IS=9.6P NF=1 BF=110 VAF=139 IKF=4 ISE=562P NE=2
+ BR=4 NR=1 VAR=20 IKR=6 RE=80M RB=.2 RC=60M XTB=1.5
+ CJE=1.65N VJE=.74 MJE=.45 CJC=238P VJC=1.1 MJC=.24 TF=15.3N TR=750N)
.MODEL DSUB D (IS=9.6P N=1 RS=50M BV=60 IBV=.001 CJO=238P TT=750N)
.ENDS 
**********
*SRC=2N6041;QN6041;BJTs PNP;Darlington;80V 8A
*SYM=DARBJTP
.SUBCKT QN6041   1 2 3
*    TERMINALS:  C B E
* Motorola 80 Volt  8 Amp  PNP Darlington Transistor  08-02-1993
Q1 1 2 4 QPWR .1
Q2 1 4 3 QPWR
R1 2 4  8K
R2 4 3  120
D1 1 3  DSUB
.MODEL QPWR PNP (IS=9.6P NF=1 BF=102 VAF=161 IKF=4 ISE=606P NE=2
+ BR=4 NR=1 VAR=20 IKR=6 RE=82M RB=.2 RC=61M XTB=1.5
+ CJE=1.65N VJE=.74 MJE=.45 CJC=238P VJC=1.1 MJC=.24 TF=16.5N TR=650N)
.MODEL DSUB D (IS=9.6P N=1 RS=50M BV=80 IBV=.001 CJO=238P TT=650N)
.ENDS 
**********
*SRC=2N6042;QN6042;BJTs PNP;Darlington;100V 8A
*SYM=DARBJTP
.SUBCKT QN6042   1 2 3
*    TERMINALS:  C B E
* Motorola 100 Volt  8 Amp  PNP Darlington Transistor  08-02-1993
Q1 1 2 4 QPWR .1
Q2 1 4 3 QPWR
R1 2 4  8K
R2 4 3  120
D1 1 3  DSUB
.MODEL QPWR PNP (IS=9.6P NF=1 BF=96.6 VAF=180 IKF=4 ISE=641P NE=2
+ BR=4 NR=1 VAR=20 IKR=6 RE=85M RB=.2 RC=63M XTB=1.5
+ CJE=1.65N VJE=.74 MJE=.45 CJC=238P VJC=1.1 MJC=.24 TF=14.0N TR=700N)
.MODEL DSUB D (IS=9.6P N=1 RS=50M BV=100 IBV=.001 CJO=238P TT=700N)
.ENDS 
**********
*SRC=2N6043;QN6043;BJTs NPN;Darlington;60V 8A
*SYM=DARBJTN
.SUBCKT QN6043   1 2 3
*    TERMINALS:  C B E
* Motorola 60 Volt  8 Amp  NPN Darlington Transistor  08-02-1993
Q1 1 2 4 QPWR .1
Q2 1 4 3 QPWR
R1 2 4  8K
R2 4 3  120
D1 3 1  DSUB
.MODEL QPWR NPN (IS=9.6P NF=1 BF=95.4 VAF=139 IKF=6.4 ISE=822P NE=2
+ BR=4 NR=1 VAR=20 IKR=9.6 RE=80M RB=.2 RC=60M XTB=1.5
+ CJE=1.52N VJE=.74 MJE=.45 CJC=155P VJC=1.1 MJC=.24 TF=15.5N TR=890N)
.MODEL DSUB D (IS=9.6P N=1 RS=50M BV=60 IBV=.001 CJO=155P TT=890N)
.ENDS 
**********
*SRC=2N6044;QN6044;BJTs NPN;Darlington;80V 8A
*SYM=DARBJTN
.SUBCKT QN6044   1 2 3
*    TERMINALS:  C B E
* Motorola 80 Volt  8 Amp  NPN Darlington Transistor  08-02-1993
Q1 1 2 4 QPWR .1
Q2 1 4 3 QPWR
R1 2 4  8K
R2 4 3  120
D1 3 1  DSUB
.MODEL QPWR NPN (IS=9.6P NF=1 BF=89.6 VAF=161 IKF=6.4 ISE=874P NE=2
+ BR=4 NR=1 VAR=20 IKR=9.6 RE=85M RB=.2 RC=62M XTB=1.5
+ CJE=1.52N VJE=.74 MJE=.45 CJC=150P VJC=1.1 MJC=.24 TF=16.95N TR=850N)
.MODEL DSUB D (IS=9.6P N=1 RS=50M BV=80 IBV=.001 CJO=150P TT=850N)
.ENDS 
**********
*SRC=2N6045;QN6045;BJTs NPN;Darlington;100V 8A
*SYM=DARBJTN
.SUBCKT QN6045   1 2 3
*    TERMINALS:  C B E
* Motorola 100 Volt  8 Amp  NPN Darlington Transistor  08-02-1993
Q1 1 2 4 QPWR .1
Q2 1 4 3 QPWR
R1 2 4  8K
R2 4 3  120
D1 3 1  DSUB
.MODEL QPWR NPN (IS=9.6P NF=1 BF=85.5 VAF=180 IKF=6.4 ISE=917P NE=2
+ BR=4 NR=1 VAR=20 IKR=9.6 RE=89M RB=.25 RC=64M XTB=1.5
+ CJE=1.52N VJE=.74 MJE=.45 CJC=155P VJC=1.1 MJC=.24 TF=17.95N TR=845N)
.MODEL DSUB D (IS=9.6P N=1 RS=50M BV=100 IBV=.001 CJO=155P TT=845N)
.ENDS 
**********
*SRC=BD335;BD335;BJTs NPN;Darlington;100V 6A
*SYM=DARBJTN
.SUBCKT BD335    1 2 3
*    TERMINALS:  C B E
* SGS-Thompson 100 Volt  6 Amp  NPN Darlington Transistor 07-20-1993
Q1 1 2 4 QPWR .1
Q2 1 4 3 QPWR
R1 2 4  13.3K
R2 4 3  66.7
D1 3 1  DSUB
.MODEL QPWR NPN (IS=7.2P NF=1 BF=138 VAF=180 IKF=5.2 ISE=443P NE=2
+ BR=4 NR=1 VAR=20 IKR=7.8 RE=91.7M RB=.366 RC=36.6M XTB=1.5
+ CJE=809P VJE=.74 MJE=.45 CJC=116P VJC=1.1 MJC=.24 TF=98.4N TR=1.53U)
.MODEL DSUB D (IS=7.2P N=1 RS=91.7M BV=100 IBV=.001 CJO=116P TT=1.53U)
.ENDS 
**********
*SRC=BD333;BD333;BJTs NPN;Darlington;80V 6A
*SYM=DARBJTN
.SUBCKT BD333    1 2 3
*    TERMINALS:  C B E
* SGS-Thompson 80 Volt  6 Amp  NPN Darlington Transistor 07-20-1993
Q1 1 2 4 QPWR .1
Q2 1 4 3 QPWR
R1 2 4  13.3K
R2 4 3  66.7
D1 3 1  DSUB
.MODEL QPWR NPN (IS=7.2P NF=1 BF=138 VAF=161 IKF=5.2 ISE=443P NE=2
+ BR=4 NR=1 VAR=20 IKR=7.8 RE=91.7M RB=.366 RC=36.6M XTB=1.5
+ CJE=809P VJE=.74 MJE=.45 CJC=116P VJC=1.1 MJC=.24 TF=98.4N TR=1.53U)
.MODEL DSUB D (IS=7.2P N=1 RS=91.7M BV=80 IBV=.001 CJO=116P TT=1.53U)
.ENDS 
**********
*SRC=BD331;BD331;BJTs NPN;Darlington;60V 6A
*SYM=DARBJTN
.SUBCKT BD331    1 2 3
*    TERMINALS:  C B E
* SGS-Thompson 60 Volt  6 Amp  NPN Darlington Transistor 07-20-1993
Q1 1 2 4 QPWR .1
Q2 1 4 3 QPWR
R1 2 4  13.3K
R2 4 3  66.7
D1 3 1  DSUB
.MODEL QPWR NPN (IS=7.2P NF=1 BF=138 VAF=139 IKF=5.2 ISE=443P NE=2
+ BR=4 NR=1 VAR=20 IKR=7.8 RE=91.7M RB=.366 RC=36.6M XTB=1.5
+ CJE=809P VJE=.74 MJE=.45 CJC=116P VJC=1.1 MJC=.24 TF=98.4N TR=1.53U)
.MODEL DSUB D (IS=7.2P N=1 RS=91.7M BV=60 IBV=.001 CJO=116P TT=1.53U)
.ENDS 
**********
*SRC=BD332;BD332;BJTs PNP;Darlington;60V 6A
*SYM=DARBJTP
.SUBCKT BD332    1 2 3
*    TERMINALS:  C B E
* SGS-Thompson 60 Volt  6 Amp  PNP Darlington Transistor 07-20-1993
Q1 1 2 4 QPWR .1
Q2 1 4 3 QPWR
R1 2 4  13.3K
R2 4 3  66.7
D1 1 3  DSUB
.MODEL QPWR PNP (IS=7.2P NF=1 BF=154 VAF=139 IKF=4 ISE=347P NE=2
+ BR=4 NR=1 VAR=20 IKR=6 RE=91.7M RB=.366 RC=36.6M XTB=1.5
+ CJE=1.24N VJE=.74 MJE=.45 CJC=179P VJC=1.1 MJC=.24 TF=98.4N TR=1.78U)
.MODEL DSUB D (IS=7.2P N=1 RS=91.7M BV=60 IBV=.001 CJO=179P TT=1.78U)
.ENDS 
**********
*SRC=BD334;BD334;BJTs PNP;Darlington;80V 6A
*SYM=DARBJTP
.SUBCKT BD334    1 2 3
*    TERMINALS:  C B E
* SGS-Thompson 80 Volt  6 Amp  PNP Darlington Transistor 07-20-1993
Q1 1 2 4 QPWR .1
Q2 1 4 3 QPWR
R1 2 4  13.3K
R2 4 3  66.7
D1 1 3  DSUB
.MODEL QPWR PNP (IS=7.2P NF=1 BF=154 VAF=161 IKF=4 ISE=347P NE=2
+ BR=4 NR=1 VAR=20 IKR=6 RE=91.7M RB=.366 RC=36.6M XTB=1.5
+ CJE=1.24N VJE=.74 MJE=.45 CJC=179P VJC=1.1 MJC=.24 TF=98.4N TR=1.78U)
.MODEL DSUB D (IS=7.2P N=1 RS=91.7M BV=80 IBV=.001 CJO=179P TT=1.78U)
.ENDS 
**********
*SRC=BD336;BD336;BJTs PNP;Darlington;100V 6A
*SYM=DARBJTP
.SUBCKT BD336    1 2 3
*    TERMINALS:  C B E
* SGS-Thompson 100 Volt  6 Amp  PNP Darlington Transistor 07-20-1993
Q1 1 2 4 QPWR .1
Q2 1 4 3 QPWR
R1 2 4  13.3K
R2 4 3  66.7
D1 1 3  DSUB
.MODEL QPWR PNP (IS=7.2P NF=1 BF=154 VAF=180 IKF=4 ISE=347P NE=2
+ BR=4 NR=1 VAR=20 IKR=6 RE=91.7M RB=.366 RC=36.6M XTB=1.5
+ CJE=1.24N VJE=.74 MJE=.45 CJC=179P VJC=1.1 MJC=.24 TF=98.4N TR=1.78U)
.MODEL DSUB D (IS=7.2P N=1 RS=91.7M BV=100 IBV=.001 CJO=179P TT=1.78U)
.ENDS 
**********
*SRC=BDV65;BDV65;BJTs NPN;Darlington;60V 12A
*SYM=DARBJTN
.SUBCKT BDV65    1 2 3
*    TERMINALS:  C B E
* SGS-Thompson 60 Volt  12 Amp  NPN Darlington Transistor 07-20-1993
Q1 1 2 4 QPWR .1
Q2 1 4 3 QPWR
R1 2 4  6.67K
R2 4 3  33.3
D1 3 1  DSUB
.MODEL QPWR NPN (IS=14.4P NF=1 BF=89 VAF=139 IKF=9.6 ISE=1.32N NE=2
+ BR=4 NR=1 VAR=20 IKR=14.4 RE=55M RB=.22 RC=22M XTB=1.5
+ CJE=1.6N VJE=.74 MJE=.45 CJC=231P VJC=1.1 MJC=.24 TF=89.5N TR=2.21U)
.MODEL DSUB D (IS=14.4P N=1 RS=55M BV=60 IBV=.001 CJO=231P TT=2.21U)
.ENDS 
**********
*SRC=BDV65A;BDV65A;BJTs NPN;Darlington;80V 12A
*SYM=DARBJTN
.SUBCKT BDV65A   1 2 3
*    TERMINALS:  C B E
* SGS-Thompson 80 Volt  12 Amp  NPN Darlington Transistor 07-20-1993
Q1 1 2 4 QPWR .1
Q2 1 4 3 QPWR
R1 2 4  6.67K
R2 4 3  33.3
D1 3 1  DSUB
.MODEL QPWR NPN (IS=14.4P NF=1 BF=89 VAF=161 IKF=9.6 ISE=1.32N NE=2
+ BR=4 NR=1 VAR=20 IKR=14.4 RE=55M RB=.22 RC=22M XTB=1.5
+ CJE=1.6N VJE=.74 MJE=.45 CJC=231P VJC=1.1 MJC=.24 TF=89.5N TR=2.21U)
.MODEL DSUB D (IS=14.4P N=1 RS=55M BV=80 IBV=.001 CJO=231P TT=2.21U)
.ENDS 
**********
*SRC=BDV65B;BDV65B;BJTs NPN;Darlington;100V 12A
*SYM=DARBJTN
.SUBCKT BDV65B   1 2 3
*    TERMINALS:  C B E
* SGS-Thompson 100 Volt  12 Amp  NPN Darlington Transistor 07-20-1993
Q1 1 2 4 QPWR .1
Q2 1 4 3 QPWR
R1 2 4  6.67K
R2 4 3  33.3
D1 3 1  DSUB
.MODEL QPWR NPN (IS=14.4P NF=1 BF=89 VAF=180 IKF=9.6 ISE=1.32N NE=2
+ BR=4 NR=1 VAR=20 IKR=14.4 RE=55M RB=.22 RC=22M XTB=1.5
+ CJE=1.6N VJE=.74 MJE=.45 CJC=231P VJC=1.1 MJC=.24 TF=89.5N TR=2.21U)
.MODEL DSUB D (IS=14.4P N=1 RS=55M BV=100 IBV=.001 CJO=231P TT=2.21U)
.ENDS 
**********
*SRC=BDV64B;BDV64B;BJTs PNP;Darlington;100V 12A
*SYM=DARBJTP
.SUBCKT BDV64B   1 2 3
*    TERMINALS:  C B E
* SGS-Thompson 100 Volt  12 Amp  PNP Darlington Transistor 07-20-1993
Q1 1 2 4 QPWR .1
Q2 1 4 3 QPWR
R1 2 4  6.67K
R2 4 3  33.3
D1 1 3  DSUB
.MODEL QPWR PNP (IS=14.4P NF=1 BF=81.3 VAF=180 IKF=8 ISE=1.32N NE=2
+ BR=4 NR=1 VAR=20 IKR=12 RE=55M RB=.22 RC=22M XTB=1.5
+ CJE=2.47N VJE=.74 MJE=.45 CJC=357P VJC=1.1 MJC=.24 TF=89.5N TR=1.87U)
.MODEL DSUB D (IS=14.4P N=1 RS=55M BV=100 IBV=.001 CJO=357P TT=1.87U)
.ENDS 
**********
*SRC=BDV64A;BDV64A;BJTs PNP;Darlington;80V 12A
*SYM=DARBJTP
.SUBCKT BDV64A   1 2 3
*    TERMINALS:  C B E
* SGS-Thompson 80 Volt  12 Amp  PNP Darlington Transistor 07-20-1993
Q1 1 2 4 QPWR .1
Q2 1 4 3 QPWR
R1 2 4  6.67K
R2 4 3  33.3
D1 1 3  DSUB
.MODEL QPWR PNP (IS=14.4P NF=1 BF=81.3 VAF=161 IKF=8 ISE=1.32N NE=2
+ BR=4 NR=1 VAR=20 IKR=12 RE=55M RB=.22 RC=22M XTB=1.5
+ CJE=2.47N VJE=.74 MJE=.45 CJC=357P VJC=1.1 MJC=.24 TF=89.5N TR=1.87U)
.MODEL DSUB D (IS=14.4P N=1 RS=55M BV=80 IBV=.001 CJO=357P TT=1.87U)
.ENDS 
**********
*SRC=BDV64;BDV64;BJTs PNP;Darlington;60V 12A
*SYM=DARBJTP
.SUBCKT BDV64    1 2 3
*    TERMINALS:  C B E
* SGS-Thompson 60 Volt  12 Amp  PNP Darlington Transistor 07-20-1993
Q1 1 2 4 QPWR .1
Q2 1 4 3 QPWR
R1 2 4  6.67K
R2 4 3  33.3
D1 1 3  DSUB
.MODEL QPWR PNP (IS=14.4P NF=1 BF=81.3 VAF=139 IKF=8 ISE=1.32N NE=2
+ BR=4 NR=1 VAR=20 IKR=12 RE=55M RB=.22 RC=22M XTB=1.5
+ CJE=2.47N VJE=.74 MJE=.45 CJC=357P VJC=1.1 MJC=.24 TF=89.5N TR=1.87U)
.MODEL DSUB D (IS=14.4P N=1 RS=55M BV=60 IBV=.001 CJO=357P TT=1.87U)
.ENDS 
**********
*SRC=BDW92;BDW92;BJTs PNP;Darlington;180V 4A
*SYM=DARBJTP
.SUBCKT BDW92    1 2 3
*    TERMINALS:  C B E
* SGS-Thompson 180 Volt  4 Amp  PNP Darlington Transistor 07-20-1993
Q1 1 2 4 QPWR .1
Q2 1 4 3 QPWR
R1 2 4  10K
R2 4 3  150
D1 1 3  DSUB
.MODEL QPWR PNP (IS=4.8P NF=1 BF=69.2 VAF=241 IKF=2 ISE=447P NE=2
+ BR=4 NR=1 VAR=24 IKR=3 RE=62.5M RB=.25 RC=25M XTB=1.5
+ CJE=833P VJE=.74 MJE=.45 CJC=120P VJC=1.1 MJC=.24 TF=161N TR=3.74U)
.MODEL DSUB D (IS=4.8P N=1 RS=62.5M BV=180 IBV=.001 CJO=120P TT=3.74U)
.ENDS 
**********
*SRC=BDW91;BDW91;BJTs NPN;Darlington;180V 4A
*SYM=DARBJTN
.SUBCKT BDW91    1 2 3
*    TERMINALS:  C B E
* SGS-Thompson 180 Volt  4 Amp  NPN Darlington Transistor 07-20-1993
Q1 1 2 4 QPWR .1
Q2 1 4 3 QPWR
R1 2 4  10K
R2 4 3  150
D1 3 1  DSUB
.MODEL QPWR NPN (IS=4.8P NF=1 BF=71.6 VAF=241 IKF=2 ISE=432P NE=2
+ BR=4 NR=1 VAR=24 IKR=3 RE=62.5M RB=.25 RC=25M XTB=1.5
+ CJE=543P VJE=.74 MJE=.45 CJC=78.4P VJC=1.1 MJC=.24 TF=116N TR=3.74U)
.MODEL DSUB D (IS=4.8P N=1 RS=62.5M BV=180 IBV=.001 CJO=78.4P TT=3.74U)
.ENDS 
**********
*SRC=BDW94;BDW94;BJTs PNP;Darlington;45V 12A
*SYM=DARBJTP
.SUBCKT BDW94    1 2 3
*    TERMINALS:  C B E
* SGS-Thompson 45 Volt  12 Amp  PNP Darlington Transistor 07-20-1993
Q1 1 2 4 QPWR .1
Q2 1 4 3 QPWR
R1 2 4  10K
R2 4 3  150
D1 1 3  DSUB
.MODEL QPWR PNP (IS=14.4P NF=1 BF=102 VAF=120 IKF=4.8 ISE=808P NE=2
+ BR=4 NR=1 VAR=24 IKR=7.2 RE=53.3M RB=.213 RC=21.3M XTB=1.5
+ CJE=1.14N VJE=.74 MJE=.45 CJC=165P VJC=1.1 MJC=.24 TF=71.6N TR=2.72U)
.MODEL DSUB D (IS=14.4P N=1 RS=53.3M BV=45 IBV=.001 CJO=165P TT=2.72U)
.ENDS 
**********
*SRC=BDW94A;BDW94A;BJTs PNP;Darlington;60V 12A
*SYM=DARBJTP
.SUBCKT BDW94A   1 2 3
*    TERMINALS:  C B E
* SGS-Thompson 60 Volt  12 Amp  PNP Darlington Transistor 07-20-1993
Q1 1 2 4 QPWR .1
Q2 1 4 3 QPWR
R1 2 4  10K
R2 4 3  150
D1 1 3  DSUB
.MODEL QPWR PNP (IS=14.4P NF=1 BF=102 VAF=139 IKF=4.8 ISE=808P NE=2
+ BR=4 NR=1 VAR=24 IKR=7.2 RE=53.3M RB=.213 RC=21.3M XTB=1.5
+ CJE=1.14N VJE=.74 MJE=.45 CJC=165P VJC=1.1 MJC=.24 TF=71.6N TR=2.72U)
.MODEL DSUB D (IS=14.4P N=1 RS=53.3M BV=60 IBV=.001 CJO=165P TT=2.72U)
.ENDS 
**********
*SRC=BDW94B;BDW94B;BJTs PNP;Darlington;80V 12A
*SYM=DARBJTP
.SUBCKT BDW94B   1 2 3
*    TERMINALS:  C B E
* SGS-Thompson 80 Volt  12 Amp  PNP Darlington Transistor 07-20-1993
Q1 1 2 4 QPWR .1
Q2 1 4 3 QPWR
R1 2 4  10K
R2 4 3  150
D1 1 3  DSUB
.MODEL QPWR PNP (IS=14.4P NF=1 BF=102 VAF=161 IKF=4.8 ISE=808P NE=2
+ BR=4 NR=1 VAR=24 IKR=7.2 RE=53.3M RB=.213 RC=21.3M XTB=1.5
+ CJE=1.14N VJE=.74 MJE=.45 CJC=165P VJC=1.1 MJC=.24 TF=71.6N TR=2.72U)
.MODEL DSUB D (IS=14.4P N=1 RS=53.3M BV=80 IBV=.001 CJO=165P TT=2.72U)
.ENDS 
**********
*SRC=BDW94C;BDW94C;BJTs PNP;Darlington;100V 12A
*SYM=DARBJTP
.SUBCKT BDW94C   1 2 3
*    TERMINALS:  C B E
* SGS-Thompson 100 Volt  12 Amp  PNP Darlington Transistor 07-20-1993
Q1 1 2 4 QPWR .1
Q2 1 4 3 QPWR
R1 2 4  10K
R2 4 3  150
D1 1 3  DSUB
.MODEL QPWR PNP (IS=14.4P NF=1 BF=102 VAF=180 IKF=4.8 ISE=808P NE=2
+ BR=4 NR=1 VAR=24 IKR=7.2 RE=53.3M RB=.213 RC=21.3M XTB=1.5
+ CJE=1.14N VJE=.74 MJE=.45 CJC=165P VJC=1.1 MJC=.24 TF=71.6N TR=2.72U)
.MODEL DSUB D (IS=14.4P N=1 RS=53.3M BV=100 IBV=.001 CJO=165P TT=2.72U)
.ENDS 
**********
*SRC=BDW93C;BDW93C;BJTs NPN;Darlington;100V 12A
*SYM=DARBJTN
.SUBCKT BDW93C   1 2 3
*    TERMINALS:  C B E
* SGS-Thompson 100 Volt  12 Amp  NPN Darlington Transistor 07-20-1993
Q1 1 2 4 QPWR .1
Q2 1 4 3 QPWR
R1 2 4  10K
R2 4 3  150
D1 3 1  DSUB
.MODEL QPWR NPN (IS=14.4P NF=1 BF=119 VAF=180 IKF=4 ISE=636P NE=2
+ BR=4 NR=1 VAR=24 IKR=6 RE=46.6M RB=.186 RC=18.6M XTB=1.5
+ CJE=700P VJE=.74 MJE=.45 CJC=101P VJC=1.1 MJC=.24 TF=71.6N TR=3.74U)
.MODEL DSUB D (IS=14.4P N=1 RS=46.6M BV=100 IBV=.001 CJO=101P TT=3.74U)
.ENDS 
**********
*SRC=BDW93B;BDW93B;BJTs NPN;Darlington;80V 12A
*SYM=DARBJTN
.SUBCKT BDW93B   1 2 3
*    TERMINALS:  C B E
* SGS-Thompson 80 Volt  12 Amp  NPN Darlington Transistor 07-20-1993
Q1 1 2 4 QPWR .1
Q2 1 4 3 QPWR
R1 2 4  10K
R2 4 3  150
D1 3 1  DSUB
.MODEL QPWR NPN (IS=14.4P NF=1 BF=119 VAF=161 IKF=4 ISE=636P NE=2
+ BR=4 NR=1 VAR=24 IKR=6 RE=46.6M RB=.186 RC=18.6M XTB=1.5
+ CJE=700P VJE=.74 MJE=.45 CJC=101P VJC=1.1 MJC=.24 TF=71.6N TR=3.74U)
.MODEL DSUB D (IS=14.4P N=1 RS=46.6M BV=80 IBV=.001 CJO=101P TT=3.74U)
.ENDS 
**********
*SRC=BDW93A;BDW93A;BJTs NPN;Darlington;60V 12A
*SYM=DARBJTN
.SUBCKT BDW93A   1 2 3
*    TERMINALS:  C B E
* SGS-Thompson 60 Volt  12 Amp  NPN Darlington Transistor 07-20-1993
Q1 1 2 4 QPWR .1
Q2 1 4 3 QPWR
R1 2 4  10K
R2 4 3  150
D1 3 1  DSUB
.MODEL QPWR NPN (IS=14.4P NF=1 BF=119 VAF=139 IKF=4 ISE=636P NE=2
+ BR=4 NR=1 VAR=24 IKR=6 RE=46.6M RB=.186 RC=18.6M XTB=1.5
+ CJE=700P VJE=.74 MJE=.45 CJC=101P VJC=1.1 MJC=.24 TF=71.6N TR=3.74U)
.MODEL DSUB D (IS=14.4P N=1 RS=46.6M BV=60 IBV=.001 CJO=101P TT=3.74U)
.ENDS 
**********
*SRC=BDW93;BDW93;BJTs NPN;Darlington;45V 12A
*SYM=DARBJTN
.SUBCKT BDW93    1 2 3
*    TERMINALS:  C B E
* SGS-Thompson 45 Volt  12 Amp  NPN Darlington Transistor 07-20-1993
Q1 1 2 4 QPWR .1
Q2 1 4 3 QPWR
R1 2 4  10K
R2 4 3  150
D1 3 1  DSUB
.MODEL QPWR NPN (IS=14.4P NF=1 BF=119 VAF=120 IKF=4 ISE=636P NE=2
+ BR=4 NR=1 VAR=24 IKR=6 RE=46.6M RB=.186 RC=18.6M XTB=1.5
+ CJE=700P VJE=.74 MJE=.45 CJC=101P VJC=1.1 MJC=.24 TF=71.6N TR=3.74U)
.MODEL DSUB D (IS=14.4P N=1 RS=46.6M BV=45 IBV=.001 CJO=101P TT=3.74U)
.ENDS 
**********
*SRC=BCX38B;BCX38B;BJTs NPN;Darlington;Zetex
*SYM=DARBJTN
.SUBCKT BCX38B 1 2 3
*              C B E
Q1 1 2 4 SUB38B
Q2 1 4 3 SUB38B 12.75
*
.MODEL SUB38B NPN IS=1.1E-14 ISE=7.1E-15 NF=1.012 NE=1.4758 BF=147 IKF=.12
+BR=15 IKR=.05 RE=1.3 RC=.5 RB=.3 VAF=150 CJE=14.5E-12 CJC=4.14E-12
+VJC=.515 MJC=.26 TF=1.15E-9 TR=75E-9
.ENDS 
**********
*SRC=FMMT38B;FMMT38B;BJTs NPN;Darlington;Zetex
*SYM=DARBJTN
.SUBCKT FMMT38B 1 2 3
*               C B E
Q1 1 2 4 SUB38B
Q2 1 4 3 SUB38B 12.75
*
.MODEL SUB38B NPN IS=1.1E-14 ISE=7.1E-15 NF=1.012 NE=1.4758 BF=147 IKF=.12
+BR=15 IKR=.05 RE=1.3 RC=.5 RB=.3 VAF=150 CJE=14.5E-12 CJC=4.14E-12
+VJC=.515 MJC=.26 TF=1.15E-9 TR=75E-9
.ENDS 
**********
*SRC=FZT604;FZT604;BJTs NPN;Darlington;Zetex
*SYM=DARBJTN
.SUBCKT FZT604 1 2 3
*              C B E
Q1 1 2 4 SUB605
Q2 1 4 3 SUB605 3.46
*
.MODEL SUB605 NPN IS=4.8E-14 BF=170 VAF=542 NF=1.0039 IKF=0.2 ISE=1.5E-14
+NE=1.55 BR=12 VAR=20 NR=1.007 IKR=0.35 ISC=7.486E-14 NC=1.0984 RB=0.17 RE=0.3
+RC=0.14 CJE=81E-12 CJC=10.8E-12 VJC=0.85 MJC=0.41 TF=1.024E-9 TR=700E-9
.ENDS 
**********
*SRC=FZT605;FZT605;BJTs NPN;Darlington;Zetex
*SYM=DARBJTN
.SUBCKT FZT605 1 2 3
*              C B E
Q1 1 2 4 SUB605
Q2 1 4 3 SUB605 3.46
*
.MODEL SUB605 NPN IS=4.8E-14 BF=170 VAF=542 NF=1.0039 IKF=0.2 ISE=1.5E-14
+NE=1.55 BR=12 VAR=20 NR=1.007 IKR=0.35 ISC=7.486E-14 NC=1.0984 RB=0.17 RE=0.3
+RC=0.14 CJE=81E-12 CJC=10.8E-12 VJC=0.85 MJC=0.41 TF=1.024E-9 TR=700E-9
.ENDS 
**********
*SRC=FZT705;FZT705;BJTs PNP;Darlington;Zetex
*SYM=DARBJTP
.SUBCKT FZT705 1 2 3
*              C B E
Q1 1 2 4 SUB704
Q2 1 4 3 SUB704 4
*
.MODEL SUB704 PNP IS=3.35584E-14 BF=85 VAF=212 NF=1.002 IKF=.817
+ISE=3.6E-13 NE=4.1 BR=24 VAR=6 NR=.999 IKR=.114 ISC=1.406E-13 NC=1.13
+RB=1.1 RE=.4 RC=.0339 CJE=100E-12 CJC=37E-12 VJC=1.045 MJC=.595
.ENDS 
**********
*SRC=MJE340;MJE340;BJTs NPN;Power;300V 500mA
*SYM=POWBJTN
.SUBCKT MJE340   1 2 3
*    TERMINALS:  C B E
*  300 Volt  .5 Amp  SiNPN  Power Transistor  08-16-1995
Q1 1 2 3  QPWR .67
Q2 1 4 3  QPWR .33
RBS  2 4  6.5
.MODEL QPWR NPN (IS=36.8F NF=1 BF=212 VAF=311 IKF=.5 ISE=138P NE=2
+ BR=4 NR=1 VAR=12 IKR=.75 RE=.663 RB=2.65 RC=.265 XTB=1.5
+ CJE=18.8P VJE=.6 MJE=.3 CJC=12.2P VJC=.22 MJC=.2 TF=7.65N TR=294N)
.ENDS
* MJE340, MOTOROLA BIPOLAR POWER TRANSISITOR DATA BOOK,
* 1992, P.3-876.
**********
*SRC=MJE350;MJE350;BJTs PNP;Power;300V 500mA
*SYM=POWBJTP
.SUBCKT MJE350   1 2 3
*    TERMINALS:  C B E
*  300 Volt  .5 Amp  SiPNP  Power Transistor  08-16-1995
Q1 1 2 3  QPWR .67
Q2 1 4 3  QPWR .33
RBS  2 4  6.5
.MODEL QPWR PNP (IS=36.8F NF=1 BF=365 VAF=311 IKF=.225 ISE=96.8P NE=2
+ BR=4 NR=1 VAR=12 IKR=.337 RE=.663 RB=2.65 RC=.265 XTB=1.5
+ CJE=39.1P VJE=.6 MJE=.3 CJC=25.4P VJC=.22 MJC=.2 TF=7.65N TR=294N)
.ENDS
* MJE350, MOTOROLA BIPOLAR POWER TRANSISITOR DATA BOOK,
* 1992, P.3-880.
**********
*SRC=MPSA13;MPSA13;BJTs NPN;Darlington;30V 500mA
*SYM=DARBJTN
.SUBCKT MPSA13   1 2 3
*    TERMINALS:  C B E
*  30 Volt  .5 Amp  NPN Darlington Transistor  08-16-1995
Q1 1 2 4 QPWR .1
Q2 1 4 3 QPWR
.MODEL QPWR NPN (IS=600F NF=1 BF=224 VAF=98.6 IKF=.4 ISE=21.8P NE=2
+ BR=4 NR=1 VAR=40 IKR=.6 RE=.8 RB=3.2 RC=.32 XTB=1.5
+ CJE=66.1P VJE=.74 MJE=.45 CJC=6.96P VJC=1.1 MJC=.24 TF=60.3N TR=2.6U)
.ENDS
* MPSA13, NATIONAL SEMICONDUCTOR DISCRETE SEMICONDUCTOR
* PRODUCTS DATA BOOK,  1989, P.3-50.
**********
*SRC=MPSA63;MPSA63;BJTs PNP;Darlington;30V 500mA
*SYM=DARBJTP
.SUBCKT MPSA63   1 2 3
*    TERMINALS:  C B E
*  30 Volt  .5 Amp  PNP Darlington Transistor  08-16-1995
Q1 1 2 4 QPWR .1
Q2 1 4 3 QPWR
.MODEL QPWR PNP (IS=600F NF=1 BF=255 VAF=98.6 IKF=.24 ISE=14.8P NE=2
+ BR=4 NR=1 VAR=40 IKR=.36 RE=.8 RB=3.2 RC=.32 XTB=1.5
+ CJE=132P VJE=.74 MJE=.45 CJC=6.96P VJC=1.1 MJC=.24 TF=60.3N TR=2.6U)
.ENDS
* MPSA63, NATIONAL SEMICONDUCTOR DISCRETE SEMICONDUCTOR
* PRODUCTS DATA BOOK,  1989, P.4-26.
**********
*SRC=ZTX604;ZTX604;BJTs NPN;Darlington;Zetex
*SYM=DARBJTN
.SUBCKT ZTX604 1 2 3
*              C B E
Q1 1 2 4 SUB605
Q2 1 4 3 SUB605 3.46
*
.MODEL SUB605 NPN IS=4.8E-14 BF=170 VAF=542 NF=1.0039 IKF=0.2 ISE=1.5E-14
+NE=1.55 BR=12 VAR=20 NR=1.007 IKR=0.35 ISC=7.486E-14 NC=1.0984 RB=0.17 RE=0.3
+RC=0.14 CJE=81E-12 CJC=10.8E-12 VJC=0.85 MJC=0.41 TF=1.024E-9 TR=700E-9
.ENDS 
**********
*SRC=ZTX605;ZTX605;BJTs NPN;Darlington;Zetex
*SYM=DARBJTN
.SUBCKT ZTX605 1 2 3
*              C B E
Q1 1 2 4 SUB605
Q2 1 4 3 SUB605 3.46
*
.MODEL SUB605 NPN IS=4.8E-14 BF=170 VAF=542 NF=1.0039 IKF=0.2 ISE=1.5E-14
+NE=1.55 BR=12 VAR=20 NR=1.007 IKR=0.35 ISC=7.486E-14 NC=1.0984 RB=0.17 RE=0.3
+RC=0.14 CJE=81E-12 CJC=10.8E-12 VJC=0.85 MJC=0.41 TF=1.024E-9 TR=700E-9
.ENDS 
**********
*SRC=ZTX704;ZTX704;BJTs PNP;Darlington;Zetex
*SYM=DARBJTP
.SUBCKT ZTX704 1 2 3
*              C B E
Q1 1 2 4 SUB704
Q2 1 4 3 SUB704 4
*
.MODEL SUB704 PNP IS=3.35584E-14 BF=85 VAF=212 NF=1.002 IKF=.817
+ISE=3.6E-13 NE=4.1 BR=24 VAR=6 NR=.999 IKR=.114 ISC=1.406E-13 NC=1.13
+RB=1.1 RE=.4 RC=.0339 CJE=100E-12 CJC=37E-12 VJC=1.045 MJC=.595
.ENDS 
**********
*SRC=ZTX705;ZTX705;BJTs PNP;Darlington;Zetex
*SYM=DARBJTP
.SUBCKT ZTX705 1 2 3
*              C B E
Q1 1 2 4 SUB704
Q2 1 4 3 SUB704 4
*
.MODEL SUB704 PNP IS=3.35584E-14 BF=85 VAF=212 NF=1.002 IKF=.817
+ISE=3.6E-13 NE=4.1 BR=24 VAR=6 NR=.999 IKR=.114 ISC=1.406E-13 NC=1.13
+RB=1.1 RE=.4 RC=.0339 CJE=100E-12 CJC=37E-12 VJC=1.045 MJC=.595
.ENDS 
**********
*SRC=TIP100;TIP100;BJTs NPN;Darlington;60V 8A
*SYM=DARBJTN
.SUBCKT TIP100   1 2 3
*    TERMINALS:  C B E
*  60 Volt  8 Amp  NPN Darlington Transistor  08-03-1995
Q1 1 2 4 QPWR .1
Q2 1 4 3 QPWR
R1 2 4  1.8K
R2 4 3  70
D1 3 1  DSUB
.MODEL QPWR NPN (IS=9.6P NF=1 BF=447 VAF=139 IKF=5.44 ISE=161P NE=2
+ BR=4 NR=1 VAR=20 IKR=8.16 RE=.112 RB=.45 RC=45M XTB=1.5
+ CJE=1.07N VJE=.74 MJE=.45 CJC=155P VJC=1.1 MJC=.24 TF=62.6N TR=3.06U)
.MODEL DSUB D (IS=9.6P N=1 RS=.112 BV=60 IBV=.001 CJO=155P TT=3.06U)
.ENDS 
* TIP100, TEXAS INSTRUMENTS POWER PRODUCTS DATA BOOK, 1985.
**********
*SRC=TIP101;TIP101;BJTs NPN;Darlington;80V 8A
*SYM=DARBJTN
.SUBCKT TIP101   1 2 3
*    TERMINALS:  C B E
*  80 Volt  8 Amp  NPN Darlington Transistor  08-03-1995
Q1 1 2 4 QPWR .1
Q2 1 4 3 QPWR
R1 2 4  1.8K
R2 4 3  70
D1 3 1  DSUB
.MODEL QPWR NPN (IS=9.6P NF=1 BF=447 VAF=161 IKF=5.44 ISE=161P NE=2
+ BR=4 NR=1 VAR=20 IKR=8.16 RE=.112 RB=.45 RC=45M XTB=1.5
+ CJE=1.07N VJE=.74 MJE=.45 CJC=155P VJC=1.1 MJC=.24 TF=62.6N TR=3.06U)
.MODEL DSUB D (IS=9.6P N=1 RS=.112 BV=80 IBV=.001 CJO=155P TT=3.06U)
.ENDS 
* TIP101, TEXAS INSTRUMENTS POWER PRODUCTS DATA BOOK, 1985.
**********
*SRC=TIP102;TIP102;BJTs NPN;Darlington;100V 8A
*SYM=DARBJTN
.SUBCKT TIP102   1 2 3
*    TERMINALS:  C B E
*  100 Volt  8 Amp  NPN Darlington Transistor  08-03-1995
Q1 1 2 4 QPWR .1
Q2 1 4 3 QPWR
R1 2 4  1.8K
R2 4 3  70
D1 3 1  DSUB
.MODEL QPWR NPN (IS=9.6P NF=1 BF=447 VAF=180 IKF=5.44 ISE=161P NE=2
+ BR=4 NR=1 VAR=20 IKR=8.16 RE=.112 RB=.45 RC=45M XTB=1.5
+ CJE=1.07N VJE=.74 MJE=.45 CJC=155P VJC=1.1 MJC=.24 TF=62.6N TR=3.06U)
.MODEL DSUB D (IS=9.6P N=1 RS=.112 BV=100 IBV=.001 CJO=155P TT=3.06U)
.ENDS 
* TIP102, TEXAS INSTRUMENTS POWER PRODUCTS DATA BOOK, 1985.
**********
*SRC=TIP105;TIP105;BJTs PNP;Darlington;60V 8A
*SYM=DARBJTP
.SUBCKT TIP105   1 2 3
*    TERMINALS:  C B E
*  60 Volt  8 Amp  PNP Darlington Transistor  08-03-1995
Q1 1 2 4 QPWR .1
Q2 1 4 3 QPWR
R1 2 4  1.8K
R2 4 3  70
D1 1 3  DSUB
.MODEL QPWR PNP (IS=9.6P NF=1 BF=93.5 VAF=139 IKF=6.24 ISE=828P NE=2
+ BR=4 NR=1 VAR=20 IKR=9.36 RE=.112 RB=.45 RC=45M XTB=1.5
+ CJE=1.65N VJE=.74 MJE=.45 CJC=238P VJC=1.1 MJC=.24 TF=53.7N TR=1.53U)
.MODEL DSUB D (IS=9.6P N=1 RS=.112 BV=60 IBV=.001 CJO=238P TT=1.53U)
.ENDS 
* TIP105, TEXAS INSTRUMENTS POWER PRODUCTS DATA BOOK, 1985.
**********
*SRC=TIP106;TIP106;BJTs PNP;Darlington;80V 8A
*SYM=DARBJTP
.SUBCKT TIP106   1 2 3
*    TERMINALS:  C B E
*  80 Volt  8 Amp  PNP Darlington Transistor  08-03-1995
Q1 1 2 4 QPWR .1
Q2 1 4 3 QPWR
R1 2 4  1.8K
R2 4 3  70
D1 1 3  DSUB
.MODEL QPWR PNP (IS=9.6P NF=1 BF=93.5 VAF=161 IKF=6.24 ISE=828P NE=2
+ BR=4 NR=1 VAR=20 IKR=9.36 RE=.112 RB=.45 RC=45M XTB=1.5
+ CJE=1.65N VJE=.74 MJE=.45 CJC=238P VJC=1.1 MJC=.24 TF=53.7N TR=1.53U)
.MODEL DSUB D (IS=9.6P N=1 RS=.112 BV=80 IBV=.001 CJO=238P TT=1.53U)
.ENDS 
* TIP106, TEXAS INSTRUMENTS POWER PRODUCTS DATA BOOK, 1985.
**********
*SRC=TIP107;TIP107;BJTs PNP;Darlington;100V 8A
*SYM=DARBJTP
.SUBCKT TIP107   1 2 3
*    TERMINALS:  C B E
*  100 Volt  8 Amp  PNP Darlington Transistor  08-03-1995
Q1 1 2 4 QPWR .1
Q2 1 4 3 QPWR
R1 2 4  1.8K
R2 4 3  70
D1 1 3  DSUB
.MODEL QPWR PNP (IS=9.6P NF=1 BF=93.5 VAF=180 IKF=6.24 ISE=828P NE=2
+ BR=4 NR=1 VAR=20 IKR=9.36 RE=.112 RB=.45 RC=45M XTB=1.5
+ CJE=1.65N VJE=.74 MJE=.45 CJC=238P VJC=1.1 MJC=.24 TF=53.7N TR=1.53U)
.MODEL DSUB D (IS=9.6P N=1 RS=.112 BV=100 IBV=.001 CJO=238P TT=1.53U)
.ENDS 
* TIP107, TEXAS INSTRUMENTS POWER PRODUCTS DATA BOOK, 1985.
**********
*SRC=TIP120;TIP120;BJTs NPN;Darlington;60V 5A
*SYM=DARBJTN
.SUBCKT TIP120   1 2 3
*    TERMINALS:  C B E
*  60 Volt  5 Amp  NPN Darlington Transistor  08-03-1995
Q1 1 2 4 QPWR .1
Q2 1 4 3 QPWR
R1 2 4  10K
R2 4 3  150
D1 3 1  DSUB
.MODEL QPWR NPN (IS=6P NF=1 BF=116 VAF=139 IKF=3.2 ISE=376P NE=2
+ BR=4 NR=1 VAR=20 IKR=4.8 RE=.33 RB=1.32 RC=.132 XTB=1.5
+ CJE=676P VJE=.74 MJE=.45 CJC=97.5P VJC=1.1 MJC=.24 TF=85.3N TR=3.68U)
.MODEL DSUB D (IS=6P N=1 RS=.33 BV=60 IBV=.001 CJO=97.5P TT=3.68U)
.ENDS 
* TIP120, TEXAS INSTRUMENTS POWER PRODUCTS DATA BOOK, 1985.
**********
*SRC=TIP121;TIP121;BJTs NPN;Darlington;80V 5A
*SYM=DARBJTN
.SUBCKT TIP121   1 2 3
*    TERMINALS:  C B E
*  80 Volt  5 Amp  NPN Darlington Transistor  08-03-1995
Q1 1 2 4 QPWR .1
Q2 1 4 3 QPWR
R1 2 4  10K
R2 4 3  150
D1 3 1  DSUB
.MODEL QPWR NPN (IS=6P NF=1 BF=116 VAF=161 IKF=3.2 ISE=376P NE=2
+ BR=4 NR=1 VAR=20 IKR=4.8 RE=.33 RB=1.32 RC=.132 XTB=1.5