**********
* Copyright Intusoft 1988-1997
* All Rights Reserved
**********
**********
*SRC=BCY59X;BCY59X;BJTs NPN;Amplifier;32V 200mA
.MODEL BCY59X NPN (IS=19.9F NF=1 BF=551 VAF=120 IKF=.35 ISE=2.35P NE=2
+ BR=4 NR=1 VAR=28 IKR=.525 RE=.315 RB=1.26 RC=.126 XTB=1.5
+ CJE=13.5P VJE=1.1 MJE=.5 CJC=9.59P VJC=.3 MJC=.5 TF=530P TR=170N)
*  Motorola 45 Volt  .2 Amp  300 MHz  SiNPN  Transistor  09-09-1991
*PINOUT TO-18 3 2 1
**********
*SRC=BC338;BC338;BJTs NPN;Amplifier;25V 500mA
.MODEL BC338 NPN (IS=162F NF=1 BF=520 VAF=90 IKF=.3 ISE=17.4P NE=2
+ BR=4 NR=1 VAR=20 IKR=.45 RE=.363 RB=.852 RC=65.2M XTB=1.5
+ CJE=44.7P VJE=1.1 MJE=.5 CJC=14.4P VJC=.3 MJC=.3 TF=454P TR=170N)
*  Philips 25 Volt  .5 Amp  350 MHz  SiNPN  Transistor  09-09-1991
*PINOUT TO-92 3 2 1
**********
*SRC=BC109C;BC109C;BJTs NPN;Gen. Purpose;25V 200mA
.MODEL BC109C NPN (IS=1.02E-14 NF=1.0 BF=845  VAF=80 
+ IKF=6.0E-02 ISE=1.20E-12 NE=2.0 BR=4  NR=1.0 VAR=20 
+ XTB=1.5 RE=8.1E-01 RB=3.3E+00 RC=3.3E-01
+ CJE=1.6E-11 CJC=4.7E-12 TF=4.7E-10 TR=6.2E-08)
*  Philips 20 Volt  0.10 Amp  340 MHz  SiNPN  Transistor  06-27-1990
*PINOUT TO-18 3 2 1
**********
*SRC=BC108B;BC108B;BJTs NPN;Gen. Purpose;25V 200mA
.MODEL BC108B NPN (IS=1.02E-14 NF=1.0 BF=468  VAF=80 
+ IKF=6.0E-02 ISE=2.17E-12 NE=2.0 BR=4  NR=1.0 VAR=20 
+ XTB=1.5 RE=8.1E-01 RB=3.3E+00 RC=3.3E-01
+ CJE=1.6E-11 CJC=4.7E-12 TF=4.7E-10 TR=6.2E-08)
*  Philips 20 Volt  0.10 Amp  340 MHz  SiNPN  Transistor  06-27-1990
*PINOUT TO-18 3 2 1
**********
*SRC=BC107A;BC107A;BJTs NPN;Gen. Purpose;45V 200mA
.MODEL BC107A NPN (IS=1.02E-14 NF=1.0 BF=400  VAF=121 
+ IKF=6.0E-02 ISE=4.42E-12 NE=2.0 BR=4  NR=1.0 VAR=24 
+ XTB=1.5 RE=8.1E-01 RB=3.3E+00 RC=3.3E-01
+ CJE=1.6E-11 CJC=4.7E-12 TF=4.7E-10 TR=6.2E-08)
*  Philips 45 Volt  0.10 Amp  340 MHz  SiNPN  Transistor  06-27-1990
*PINOUT TO-18 3 2 1
**********
*SRC=BCX70G;BCX70G;BJTs NPN;Gen. Purpose;45V 1A
.MODEL BCX70G NPN (IS=5.08E-15 NF=1.0 BF=234  VAF=121 
+ IKF=7.0E-02 ISE=2.25E-12 NE=2.0 BR=4  NR=1.0 VAR=20 
+ XTB=1.5 RE=4.6E+00 RB=1.9E+01 RC=1.9E+00
+ CJE=7.3E-12 CJC=5.3E-12 TF=7.9E-10 TR=3.0E-07
+ VJC=.346 MJC=.310 VJE=.406 MJE=.301)
*PINOUT SOT-23 3 1 2
**********
*SRC=MPS3903;MPS3903;BJTs NPN;Gen. Purpose;40V 200mA
.MODEL MPS3903 NPN (IS=.937F NF=1 BF=445 VAF=113 IKF=70M
+ ISE=2.71P NE=2 BR=4 NR=1 VAR=16 RE=1.81 RB=7.26 RC=.726
+ XTB=1.5 CJE=8.17P CJC=5.10P TF=636P TR=297N)
*   40 Volt  .2 Amp  250 MHz  SiNPN  Transistor  09-22-1990
*PINOUT TO-92 3 2 1
**********
*SRC=BF554;BF554;BJTs NPN;Gen. Purpose;20V 30mA
.MODEL BF554 NPN (IS=.237F NF=1 BF=169 VAF=80.5 IKF=18M ISE=502F NE=2
+ BR=4 NR=1 VAR=20 IKR=27M RE=2.3 RB=9.2 RC=.92 XTB=1.5
+ CJE=1.5P VJE=.75 MJE=.4 CJC=1.21P VJC=.70 MJC=.333 TF=424P TR=4.25N)
*  Siemens 20 Volt  30M Amp  375 MHz  SiNPN  Transistor  11-30-1990
*PINOUT SOT-23 3 1 2
**********
*SRC=2N3440;QN3440;BJTs NPN;Amplifier;250V 1A
.MODEL QN3440 NPN (IS=101F NF=1 BF=211 VAF=284 IKF=.165 ISE=90.6P NE=2
+ BR=4 NR=1 VAR=28 IKR=.247 RE=51.5M RB=.206 RC=20.6M XTB=1.5
+ CJE=110P VJE=1.1 MJE=.5 CJC=22.4P VJC=.3 MJC=.3 TF=2.2N TR=1.53U)
*  250 Volt  1 Amp  72 MHz  SiNPN  Transistor  08-16-1995
* 2N3440, MOTOROLA SMALL-SIGNAL TRANSISITOR DATA BOOK,
* DL-126, P.4-99.
*PINOUT TO-39 3 2 1
**********
*SRC=2N3700;QN3700;BJTs NPN;Power;80V 1A
.MODEL QN3700 NPN (IS=101F NF=1 BF=273 VAF=160 IKF=.8
+ ISE=42.9P NE=2 BR=4 NR=1 VAR=28 RE=.363 RB=1.45 RC=.145
+ XTB=1.5 CJE=59.4P CJC=12.5P TF=815P TR=297N)
+ MJE=.268 MJC=.452 VJE=.825 VJC=.855
*   Motorola 80 Volt  1 Amp  195 MHz  SiNPN  Transistor  08-02-1990
*PINOUT TO-39 3 2 1
**********
*SRC=2N3020;QN3020;BJTs NPN;Gen. Purpose;80V 1A
.MODEL QN3020 NPN (IS=101F NF=1 BF=130 VAF=160 IKF=.81
+ ISE=90.6P NE=2 BR=4 NR=1 VAR=28 RE=.363 RB=1.45 RC=.145
+ XTB=1.5 CJE=60.4P CJC=11.4P TF=883P TR=297N)
+ MJE=.268 MJC=.452 VJE=.825 VJC=.855
*   Motorola 80 Volt  1 Amp  180 MHz  SiNPN  Transistor  08-02-1990
*PINOUT TO-39 3 2 1
**********
*SRC=2N5582;QN5582;BJTs NPN;Gen. Purpose;15V 300mA
.MODEL QN5582 NPN (IS=10.4F NF=1 BF=272 VAF=113 IKF=.2
+ ISE=4.32P NE=2 BR=4 NR=1 VAR=24 RE=.363 RB=1.45 RC=.145
+ XTB=1.5 CJE=23.6P CJC=16.8P TF=530P TR=85N)
*   40 Volt  .8 Amp  300 MHz  SiNPN  Transistor  09-26-1990
*PINOUT TO-46 3 2 1
**********
*SRC=2N5770;QN5770;BJTs NPN;Switching;15V 300mA
.MODEL QN5770 NPN (IS=30.4F NF=.8 BF=225 VAF=188 IKF=.18
+ ISE=936F NE=2 BR=4 NR=1 VAR=18 IKR=.27 RE=.407 RB=1.63
+ RC=1.63 XTB=1.5 CJE=17.3P VJE=.6222 MJE=.2775 CJC=8.18P 
+ VJC=.9 MJC=.3727 TF=567P TR=107N)
*   Nat. Semi. 15 Volt  .3 Amp  280 MHz  SiNPN  Transistor  02-13-1991
*PINOUT TO-92 3 2 1
**********
*SRC=2N3866;QN3866;BJTs NPN;Amplifier;30V 400mA
.MODEL QN3866 NPN (IS=40.6F NF=1 BF=97.5 VAF=98.5 IKF=.24
+ ISE=41.6P NE=2 BR=4 NR=1 VAR=14 IKR=.36 RE=4.81 RB=19.2
+ RC=1.92 XTB=1.5 CJE=20.4P CJC=6.00P TF=227P TR=123N)
*   30 Volt  .4 Amp  700 MHz  SiNPN  Transistor  02-20-1991
*PINOUT TO-39 3 2 1
**********
*SRC=2N5088;QN5088;BJTs NPN;Amplifier;30V 50mA
.MODEL QN5088 NPN (IS=21.0P NF=1 BF=780 VAF=98.5 IKF=30M
+ ISE=41.8P NE=2 BR=4 NR=1 VAR=18 IKR=45M RE=23.1 RB=92.6
+ RC=9.26 XTB=1.5 CJE=11.8P CJC=7.83P TF=3.18N TR=127F)
*       Motorola
*PINOUT TO-92 3 2 1
**********
*SRC=MPSA06;MPSA06;BJTs NPN;Amplifier;80V 500mA
.MODEL MPSA06 NPN (IS=50.7F NF=1 BF=286 VAF=160 IKF=.3
+ ISE=17.7P NE=2 BR=4 NR=1 VAR=16 IKR=.45 RE=.103 RB=.412
+ RC=41.2M XTB=1.5 CJE=53.2P CJC=15.6P TF=725P TR=138N)
*   Motorola 80 Volt  .5 Amp  219 MHz  SiNPN  Transistor  01-26-1991
*PINOUT TO-92 3 2 1
**********
*SRC=MPSA18;MPSA18;BJTs NPN;Gen. Purpose;45V 200mA
.MODEL MPSA18 NPN (IS=86.4F NF=1 BF=468 VAF=120 IKF=.12
+ ISE=8.94P NE=2 BR=4 NR=1 VAR=26 IKR=.18 RE=.515 RB=2.06
+ RC=.206 XTB=1.5 CJE=7.50P CJC=6.77P TF=353P TR=87.4N)
*   Motorola 45 Volt  .2 Amp  450 MHz  SiNPN  Transistor  01-26-1991
*PINOUT TO-92 3 2 1
**********
*SRC=2N4275;QN4275;BJTs NPN;Switching;40V 100mA
.MODEL QN4275 NPN (IS=9.79311E-17 NF=1 BF=91 VAF=62.3 IKF=.1
+ ISE=1.41P NE=2 BR=4 NR=1 VAR=18 IKR=.15 RE=2.31 RB=9.26
+ RC=.926 XTB=1.5 CJE=4.68P CJC=2.91P TF=227P TR=2.97N)
*   National 12 Volt  .5 Amp  700 MHz  SiNPN  Transistor  01-26-1991
*PINOUT TO-92 3 2 1
**********
*SRC=BC337;BC337;BJTs NPN;Gen. Purpose;45V 500mA
.MODEL BC337 NPN (IS=83.3F NF=1 BF=103 VAF=145 IKF=1
+ ISE=28.8P NE=2 BR=4 NR=1 VAR=28 IKR=1.5 RE=.763 RB=3.05
+ RC=.305 XTB=1.5 CJE=31.2P CJC=67.7P TF=1.13N TR=212N)
*   National 65 Volt  .5 Amp  140 MHz  SiNPN  Transistor  01-26-1991
*PINOUT TO-92 3 2 1
**********
*SRC=BC368;BC368;BJTs NPN;Gen. Purpose;25V 100mA
.MODEL BC368 NPN (IS=203F NF=1 BF=143 VAF=90 IKF=1.2
+ ISE=141P NE=2 BR=4 NR=1 VAR=20 IKR=1.8 RE=.231 RB=.926
+ RC=92.6M XTB=1.5 CJE=139P CJC=40.9P TF=530P TR=276N)
*   National 25 Volt  2 Amp  300 MHz  SiNPN  Transistor  01-26-1991
*PINOUT TO-92 3 2 1
**********
*SRC=BC546;BC546;BJTs NPN;Gen. Purpose;65V 100mA
.MODEL BC546 NPN (IS=50.7F NF=1 BF=318 VAF=145 IKF=.3
+ ISE=15.9P NE=2 BR=4 NR=1 VAR=24 IKR=.45 RE=1.54 RB=6.17
+ RC=.617 XTB=1.5 CJE=20.8P CJC=8.33P TF=611P TR=138N)
*   National 65 Volt  .5 Amp  260 MHz  SiNPN  Transistor  01-26-1991
*PINOUT TO-92 3 2 1
**********
*SRC=BC547;BC547;BJTs NPN;Gen. Purpose;45V 100mA
.MODEL BC547 NPN (IS=50.7F NF=1 BF=325 VAF=155 IKF=.3
+ ISE=15.6P NE=2 BR=4 NR=1 VAR=24 IKR=.45 RE=.907 RB=3.63
+ RC=.363 XTB=1.5 CJE=20.8P CJC=8.33P TF=611P TR=138N)
*   National 75 Volt  .5 Amp  260 MHz  SiNPN  Transistor  01-26-1991
*PINOUT TO-92 3 2 1
**********
*SRC=BC548;BC548;BJTs NPN;Gen. Purpose;20V 100mA
.MODEL BC548 NPN (IS=50.7F NF=1 BF=162 VAF=80.4 IKF=.3
+ ISE=31.2P NE=2 BR=4 NR=1 VAR=20 IKR=.45 RE=2.81 RB=11.2
+ RC=1.12 XTB=1.5 CJE=20.8P CJC=8.33P TF=611P TR=138N)
*   National 20 Volt  .5 Amp  260 MHz  SiNPN  Transistor  01-26-1991
*PINOUT TO-92 3 2 1
**********
*SRC=BC550;BC550;BJTs NPN;Gen. Purpose;45V 100mA
.MODEL BC550 NPN (IS=50.7F NF=1 BF=312 VAF=127 IKF=.3
+ ISE=16.2P NE=2 BR=4 NR=1 VAR=20 IKR=.45 RE=2.81 RB=11.2
+ RC=1.12 XTB=1.5 CJE=20.8P CJC=8.33P TF=611P TR=138N)
*   National 50 Volt  .5 Amp  260 MHz  SiNPN  Transistor  01-26-1991
*PINOUT TO-92 3 2 1
**********
*SRC=2N3019;QN3019;BJTs NPN;Gen. Purpose;80V 1A
.MODEL QN3019 NPN (IS=101F NF=1 BF=260 VAF=160 IKF=.8
+ ISE=45.0P NE=2 BR=4 NR=1 VAR=28 RE=.363 RB=1.45 RC=.145
+ XTB=1.5 CJE=60.4P CJC=11.4P TF=836P TR=297N)
+ MJE=.268 MJC=.452 VJE=.825 VJC=.855
*   Motorola 80 Volt  1 Amp  190 MHz  SiNPN  Transistor  08-02-1990
*PINOUT TO-39 3 2 1
**********
*SRC=2N4124;QN4124;BJTs NPN;Amplifier;25V 200mA
.MODEL QN4124 NPN (IS=2.35P NF=1 BF=312 VAF=90 IKF=.12
+ ISE=70.0P NE=2 BR=4 NR=1 VAR=20 IKR=.18 RE=2.63 RB=10.5
+ RC=1.05 XTB=1.5 CJE=4.42P CJC=3.64P TF=458P TR=53.1N)
*   25 Volt  .2 Amp  346 MHz  SiNPN  Transistor  02-09-1991
*PINOUT TO-92 3 2 1
**********
*SRC=2N4265;QN4265;BJTs NPN;Gen. Purpose;12V 200mA
.MODEL QN4265 NPN (IS=4.86F NF=1 BF=1.49K VAF=62.3 IKF=.11
+ ISE=5.51P NE=2 BR=4 NR=1 VAR=24 IKR=.165 RE=1.15 RB=4.63
+ RC=.463 XTB=1.5 CJE=6.61P CJC=5.28P TF=374P TR=87.4N)
*   12 Volt  .2 Amp  425 MHz  SiNPN  Transistor  02-21-1991
*PINOUT TO-92 3 2 1
**********
*SRC=2N4401;QN4401;BJTs NPN;Gen. Purpose;60V 600mA
.MODEL QN4401 NPN (IS=9.09F NF=1 BF=300 VAF=113 IKF=.36
+ ISE=10.6P NE=2 BR=4 NR=1 VAR=24 IKR=.54 RE=.319 RB=1.27
+ RC=.127 XTB=1.5 CJE=23.4P CJC=10.20P TF=512P TR=151N)
*   Motorola 40 Volt  .6 Amp  310 MHz  SiNPN  Transistor  02-21-1991
*PINOUT TO-92 3 2 1
**********
*SRC=2N3904;QN3904;BJTs NPN;Switching;60V 200mA
.MODEL QN3904 NPN(IS=1.4E-14 BF=300 VAF=100 IKF=.025 ISE=3E-13
+ BR=7.5  RC=2.4  XTB=1.5 NE=1.5
+ CJE=4.5PF TR=21E-9 CJC=3.5PF TF=4E-10 KF=9E-16 AF=1.0)  
*PINOUT TO-92 3 2 1
**********
*SRC=2N5179;QN5179;BJTs NPN;Amplifier;20V 60mA
.MODEL QN5179 NPN (IS=5.08E-15 NF=1.0 BF=260  VAF=62 
+ IKF=3.0E-02 ISE=1.95E-12 NE=2.0 BR=4  NR=1.0 VAR=10 
+ XTB=1.5 RE=18.25E+01 RB=50 IRB=10M RBM=5 RC=5
+ CJE=5.3E-12 CJC=2.4E-12 TF=1.1E-10 TR=4.2E-09)
*PINOUT TO-72 3 2 1 :CASE=1
**********
*SRC=2N2369A;QN2369A;BJTs NPN;Switching;15V 200mA
.MODEL QN2369A NPN (IS=2.03E-14 NF=1.0 BF=130  VAF=70 
+ IKF=5.0E-02 ISE=1.01E-11 NE=2.0 BR=4  NR=1.0 VAR=18 
+ XTB=1.5 RE=2.12 RB=5.8 RC=.58
+ CJE=3.2E-12 MJE=.196 VJE=.47 CJC=3.3E-12 MJC=.05 
+ VJC=.395 TF=2.6E-10 TR=4.2E-09)
*PINOUT TO-18 3 2 1
**********
*SRC=2N2710;QN2710;BJTs NPN;Switching;20V 500mA
.MODEL QN2710 NPN (IS=5.08E-14 NF=1.0 BF=104  VAF=80 
+ IKF=3.0E-01 ISE=4.88E-11 NE=2.0 BR=4  NR=1.0 VAR=20 
+ XTB=1.5 RE=3.6E+00 RB=1.5E+01 RC=1.5E+00
+ CJE=1.3E-11 CJC=8.4E-12 TF=2.3E-10 TR=4.2E-09)
*PINOUT TO-18 3 2 1
**********
*SRC=2N4239;QN4239;BJTs NPN;Gen. Purpose;80V 1A
.MODEL QN4239 NPN (IS=1.02E-13 NF=1.0 BF=275  VAF=161 
+ IKF=4.0E-01 ISE=1.30E-10 NE=2.0 BR=4  NR=1.0 VAR=24 
+ XTB=1.5 RE=2.34E-01 RB=6.4E-1 RC=6.4E-2
+ CJE=1.3E-10 CJC=1.9E-10 TF=5.3E-09 TR=7.6E-07)
*PINOUT TO-39 3 2 1
**********
*SRC=2N918;QN918;BJTs NPN;Amplifier;15V 50mA
.MODEL QN918 NPN (IS=5.08E-15 NF=1.0 BF=104  VAF=70 
+ IKF=3.0E-02 ISE=4.88E-12 NE=2.0 BR=4  NR=1.0 VAR=12 
+ XTB=1.5 RE=1.8E+01 RB=7.3E+01 RC=7.3E+00
+ CJE=2.4E-12 CJC=3.0E-12 TF=2.3E-10 TR=2.1E-08)
*PINOUT TO-72 3 2 1 :CASE=1
**********
*SRC=2N2218;QN2218;BJTs NPN;Gen. Purpose;30V 800mA
.MODEL QN2218 NPN (IS=15.2F NF=1 BF=105 VAF=98.5 IKF=.5
+ ISE=8.2P NE=2 BR=4 NR=1 VAR=20 IKR=.225 RE=.373 RB=1.49
+ RC=.149 XTB=1.5 CJE=35.5P CJC=12.2P TF=500P TR=85N)
*   Motorola 30 Volt  .8 Amp  300 MHz  SiNPN  Transistor  04-11-1991
*PINOUT TO-39 3 2 1
**********
*SRC=2N2221;QN2221;BJTs NPN;Gen. Purpose;30V 800mA
.MODEL QN2221 NPN (IS=15.2F NF=1 BF=105 VAF=98.5 IKF=.5
+ ISE=8.2P NE=2 BR=4 NR=1 VAR=20 IKR=.225 RE=.373 RB=1.49
+ RC=.149 XTB=1.5 CJE=35.5P CJC=12.2P TF=500P TR=85N)
*   Motorola 30 Volt  .8 Amp  300 MHz  SiNPN  Transistor  04-11-1991
*PINOUT TO-18 3 2 1
**********
*SRC=2N2219;QN2219;BJTs NPN;Gen. Purpose;30V 800mA
.MODEL QN2219 NPN (IS=15.2F TOL=25% NF=1 BF=105 TOL=20% VAF=98.5 IKF=.5
+ ISE=8.2P NE=2 BR=4 NR=1 VAR=20 IKR=.225 RE=.373 RB=1.49
+ RC=.149 XTB=1.5 CJE=35.5P CJC=12.2P TF=500P TR=85N)
*   Motorola 30 Volt  .8 Amp  300 MHz  SiNPN  Transistor  04-11-1991
*PINOUT TO-39 3 2 1
**********
*SRC=2N2222;QN2222;BJTs NPN;Gen. Purpose;30V 800mA 
*pinout TO-18 3 2 1
.MODEL QN2222 NPN (IS=15.2F NF=1 BF=105 VAF=98.5 IKF=.5
+ ISE=8.2P NE=2 BR=4 NR=1 VAR=20 IKR=.225 RE=.373 RB=1.49
+ RC=.149 XTB=1.5 CJE=35.5P CJC=12.2P TF=500P TR=85N)
*   Motorola 30 Volt  .8 Amp  300 MHz  SiNPN  Transistor  04-11-1991
*PINOUT TO-18 3 2 1
**********
*SRC=2N2222A;QN2222A;BJTs NPN;Gen. Purpose;40V 800mA
.MODEL QN2222A NPN (IS=81.1F NF=1 BF=205 VAF=113 IKF=.5
+ ISE=10.6P NE=2 BR=4 NR=1 VAR=24 IKR=.225 RE=.343 RB=1.37
+ RC=.137 XTB=1.5 CJE=29.5P CJC=15.2P TF=397P TR=85N)
*   Motorola 40 Volt  .8 Amp  400 MHz  SiNPN  Transistor  04-11-1991
*PINOUT TO-18 3 2 1
**********
*SRC=2N2221A;QN2221A;BJTs NPN;Gen. Purpose;40V 800mA
.MODEL QN2221A NPN (IS=81.1F NF=1 BF=205 VAF=113 IKF=.5
+ ISE=10.6P NE=2 BR=4 NR=1 VAR=24 IKR=.225 RE=.343 RB=1.37
+ RC=.137 XTB=1.5 CJE=29.5P CJC=15.2P TF=397P TR=85N)
*   Motorola 40 Volt  .8 Amp  400 MHz  SiNPN  Transistor  04-11-1991
*PINOUT TO-18 3 2 1
**********
*SRC=2N2219A;QN2219A;BJTs NPN;Gen. Purpose;40V 800mA
.MODEL QN2219A NPN (IS=81.1F NF=1 BF=205 VAF=113 IKF=.5
+ ISE=10.6P NE=2 BR=4 NR=1 VAR=24 IKR=.225 RE=.343 RB=1.37
+ RC=.137 XTB=1.5 CJE=29.5P CJC=15.2P TF=397P TR=85N)
*   Motorola 40 Volt  .8 Amp  400 MHz  SiNPN  Transistor  04-11-1991
*PINOUT TO-39 3 2 1
**********
*SRC=2N2218A;QN2218A;BJTs NPN;Gen. Purpose;40V 800mA
.MODEL QN2218A NPN (IS=81.1F NF=1 BF=205 VAF=113 IKF=.5
+ ISE=10.6P NE=2 BR=4 NR=1 VAR=24 IKR=.225 RE=.343 RB=1.37
+ RC=.137 XTB=1.5 CJE=29.5P CJC=15.2P TF=397P TR=85N)
*   Motorola 40 Volt  .8 Amp  400 MHz  SiNPN  Transistor  04-11-1991
*PINOUT TO-39 3 2 1
**********
*SRC=2N2368;QN2368;BJTs NPN;Switching;15V 200mA
.MODEL QN2368 NPN (IS=107F NF=1.1 BF=160 VAF=69.7 IKF=58M
+ ISE=197P NE=2 BR=4 NR=1 VAR=18 IKR=87M RE=1.06 RB=1.25
+ RC=.925 XTB=1.5 MJE=.1314 VJE=.4715 CJE=3.12P MJC=.102 
+ VJC=.82 CJC=3.02P TF=457P TR=3.17N)
*   Motorola 15 Volt  .2 Amp  400 MHz  SiNPN  Transistor  04-11-1991
*PINOUT TO-18 3 2 1
**********
*SRC=2N2369;QN2369;BJTs NPN;Switching;15V 200mA
.MODEL QN2369 NPN (IS=107F NF=1.1 BF=400 VAF=69.7 IKF=58M
+ ISE=78.8P NE=2 BR=4 NR=1 VAR=18 IKR=87M RE=1.06 RB=1.25
+ RC=.925 XTB=1.5 MJE=.1314 VJE=.4715 CJE=3.12P MJC=.102 
+ VJC=.82 CJC=3.02P TF=318P TR=2.97N)
*   Motorola 15 Volt  .2 Amp  500 MHz  SiNPN  Transistor  04-11-1991
*PINOUT TO-18 3 2 1
**********
*SRC=2N3227;QN3227;BJTs NPN;Switching;20V 200mA
.MODEL QN3227 NPN (IS=107F NF=1.1 BF=800 VAF=80.4 IKF=58M
+ ISE=39.4P NE=2 BR=4 NR=1 VAR=24 IKR=87M RE=1.06 RB=1.25
+ RC=.925 XTB=1.5 MJE=.1314 VJE=.4715 CJE=3.12P MJC=.102 
+ VJC=.82 CJC=3.02P TF=318P TR=2.97N) 
*   Motorola 20 Volt  .2 Amp  500 MHz  SiNPN  Transistor  04-11-1991
*PINOUT TO-18 3 2 1
**********
*SRC=2N2484;QN2484;BJTs NPN;Amplifier;60V 50mA
.MODEL QN2484 NPN (IS=801F NF=1.15 BF=960 VAF=139 IKF=.15 RBM=1.05
+ ISE=59.2P NE=2 BR=4 NR=1 VAR=24 IKR=.225 RE=2.63 RB=10.5 IRB=47.5U
+ RC=1.05 XTB=1.5 MJE=.1407 VJE=.5090 CJE=6.13P MJC=.07 VJC=.2696 
+ CJC=5.36P TF=1.59N TR=43.7N)
*   Motorola 60 Volt  .05 Amp  100 MHz  SiNPN  Transistor  04-11-1991
*PINOUT TO-18 3 2 1
**********
*SRC=2N3506;QN3506;BJTs NPN;Switching;40V 3A
.MODEL QN3506 NPN (IS=148F NF=1.195 BF=130 VAF=113 IKF=1.8
+ ISE=163P NE=2 BR=4 NR=1 VAR=20 IKR=2.7 RE=80.5M RB=.208
+ RC=102.8M XTB=1.5 CJE=510P CJC=96.3P TF=2.12N TR=17N)
*   Motorola 40 Volt  3 Amp  75 MHz  SiNPN  Transistor  04-11-1991
*PINOUT TO-39 3 2 1
**********
*SRC=2N3507;QN3507;BJTs NPN;Switching;50V 3A
.MODEL QN3507 NPN (IS=148F NF=1.195 BF=195 VAF=127 IKF=1.8
+ ISE=108P NE=2 BR=4 NR=1 VAR=20 IKR=2.7 RE=80.5M RB=.208
+ RC=102.8M XTB=1.5 CJE=510P CJC=96.3P TF=2.12N TR=17N)
*   Motorola 50 Volt  3 Amp  75 MHz  SiNPN  Transistor  04-11-1991
*PINOUT TO-39 3 2 1
**********
*SRC=2N5210;QN5210;BJTs NPN;Amplifier;50V 50mA
.MODEL QN5210 NPN (IS=39.0F NF=1 BF=463 VAF=127 IKF=1
+ ISE=1.98P NE=1.85 BR=4 NR=1 VAR=18 IKR=1.5 RE=.77 RB=1.1
+ RC=205.5M XTB=1.5 MJE=.3007 VJE=.636 CJE=7.75P MJC=.3517 VJC=.536 
+ CJC=5.035P TF=3.97N TR=43.7N)
*   Motorola 50 Volt  .05 Amp  40 MHz  SiNPN  Transistor  04-12-1991
*PINOUT TO-92 3 2 1
**********
*SRC=2N5209;QN5209;BJTs NPN;Amplifier;50V 50mA
.MODEL QN5209 NPN (IS=39.0F NF=1 BF=309 VAF=127 IKF=1
+ ISE=1.36P NE=1.85 BR=4 NR=1 VAR=18 IKR=1.5 RE=.77 RB=1.1
+ RC=205.2M XTB=1.5 MJE=.3007 VJE=.636 CJE=7.75P MJC=.3517 VJC=.536 
+ CJC=5.035P TF=3.97N TR=43.7N)
*   Motorola 50 Volt  .05 Amp  40 MHz  SiNPN  Transistor  04-12-1991
*PINOUT TO-92 3 2 1
**********
*SRC=BFY50;BFY50;BJTs NPN;Gen. Purpose;80V 1A
.MODEL BFY50 NPN (IS=1.38P NF=1.12 BF=65 VAF=160 IKF=.6
+ ISE=476P NE=2 BR=4 NR=1 VAR=24 IKR=.9 RE=.246 RB=.906
+ RC=.196 XTB=1.5 CJE=57.3P CJC=16.8P TF=1.13N TR=127N)
*   Philips 80 Volt  1 Amp  140 MHz  SiNPN  Transistor  04-12-1991
*PINOUT TO-39 3 2 1
**********
*SRC=BC817;BC817;BJTs NPN;Amplifier;45V 500mA
.MODEL BC817 NPN (IS=51.0F NF=1 BF=234 VAF=120 IKF=52M
+ ISE=9.04P NE=1.95 BR=4 NR=1 VAR=20 IKR=78M RE=.183 RB=.532
+ RC=53.2M XTB=1.5 CJE=52.9P CJC=15.6P TF=794P TR=138N)
*   Philips 45 Volt  .5 Amp  200 MHz  SiNPN  Transistor  04-13-1991
*PINOUT SOT-23 3 1 2
**********
*SRC=BC818;BC818;BJTs NPN;Amplifier;25V 500mA
.MODEL BC818 NPN (IS=51.0F NF=1 BF=234 VAF=90 IKF=52M
+ ISE=9.04P NE=2 BR=4 NR=1 VAR=20 IKR=78M RE=.183 RB=.532
+ RC=53.2M XTB=1.5 CJE=52.9P CJC=15.6P TF=794P TR=138N)
*   Philips 25 Volt  .5 Amp  200 MHz  SiNPN  Transistor  04-13-1991
*PINOUT SOT-23 3 1 2
**********
*SRC=BC846;BC846;BJTs NPN;Amplifier;65V 100mA
.MODEL BC846 NPN (IS=56.7F NF=1.083 BF=206 VAF=145 IKF=.1
+ ISE=3.76P NE=2 BR=4 NR=1 VAR=24 IKR=.15 RE=.605 RB=1.26
+ RC=.126 XTB=1.5 CJE=15.9P CJC=4.70P TF=530P TR=61.6N)
*   Philips 65 Volt  .1 Amp  300 MHz  SiNPN  Transistor  04-13-1991
*PINOUT SOT-23 3 1 2
**********
*SRC=BC847;BC847;BJTs NPN;Amplifier;45V 100mA
.MODEL BC847 NPN (IS=56.7F NF=1.083 BF=309 VAF=120 IKF=.1
+ ISE=2.51P NE=2 BR=4 NR=1 VAR=24 IKR=.15 RE=.605 RB=1.26
+ RC=.126 XTB=1.5 CJE=15.9P CJC=4.70P TF=530P TR=61.6N)
*   Philips 45 Volt  .1 Amp  300 MHz  SiNPN  Transistor  04-13-1991
*PINOUT SOT-23 3 1 2
**********
*SRC=BC848;BC848;BJTs NPN;Amplifier;30V 100mA
.MODEL BC848 NPN (IS=56.7F NF=1.083 BF=540 VAF=98.5 IKF=.1
+ ISE=1.43P NE=2 BR=4 NR=1 VAR=20 IKR=.15 RE=.605 RB=1.26
+ RC=.126 XTB=1.5 CJE=15.9P CJC=4.70P TF=530P TR=61.6N)
*   Philips 30 Volt  .1 Amp  300 MHz  SiNPN  Transistor  04-13-1991
*PINOUT SOT-23 3 1 2
**********
*SRC=BCP68;BCP68;BJTs NPN;Gen. Purpose;20V 1A
.MODEL BCP68 NPN (IS=38.6F NF=1 BF=162 VAF=80.4 IKF=10
+ ISE=27.4P NE=2 BR=4 NR=1 VAR=20 IKR=15 RE=66.5M RB=.486
+ RC=48.6M XTB=1.5 CJE=99.8P CJC=29.3P TF=2.65N TR=195N)
*   Philips 20 Volt  1 Amp  60 MHz  SiNPN  Transistor  04-13-1991
*PINOUT SOT-223 4 2 1 :Emitter=3
**********
*SRC=MPSA42;MPSA42;BJTs NPN;High Voltage;300V 500mA
.MODEL MPSA42 NPN (IS=20.9F NF=1 BF=500 VAF=311 IKF=75M 
+ ISE=31.6P NE=2 BR=4 NR=1 VAR=24 IKR=.112 RE=3.31 RB=13.2
+ RC=1.32 XTB=1.5 CJE=41.0P CJC=6.85P TF=2.12N TR=85N)
*   Motorola 300 Volt  .5 Amp  75 MHz  SiNPN  Transistor  05-15-1991
*PINOUT TO-92 3 2 1
**********
*SRC=MPSA43;MPSA43;BJTs NPN;High Voltage;200V 500mA
.MODEL MPSA43 NPN (IS=20.9F NF=1 BF=500 VAF=254 IKF=75M
+ ISE=31.6P NE=2 BR=4 NR=1 VAR=24 IKR=.112 RE=3.31 RB=13.2
+ RC=1.32 XTB=1.5 CJE=41.0P CJC=9.79P TF=2.12N TR=85N)
*   Motorola 200 Volt  .5 Amp  75 MHz  SiNPN  Transistor  05-15-1991
*PINOUT TO-92 3 2 1
**********
*SRC=MPSA44;MPSA44;BJTs NPN;High Voltage;400V 300mA
.MODEL MPSA44 NPN (IS=1.42P NF=1.02 BF=102 VAF=360 IKF=.195
+ ISE=24.8P NE=2 BR=4 NR=1 VAR=24 IKR=.292 RE=.931 RB=1.16
+ RC=.726 XTB=1.5 MJE=.4202 VJE=.736 CJE=128.61P MJC=.4314
+ VJC=.7333 CJC=17.392P TF=1.59N TR=2.12U)
*   Motorola 400 Volt  .3 Amp  100 MHz  SiNPN  Transistor  05-16-1991
*PINOUT TO-92 3 2 1
**********
*SRC=MPSA45;MPSA45;BJTs NPN;High Voltage;350V 300mA
.MODEL MPSA45 NPN (IS=1.24P NF=1.02 BF=102 VAF=336 IKF=.195
+ ISE=24.8P NE=2 BR=4 NR=1 VAR=24 IKR=.292 RE=.935 RB=1.13
+ RC=.726 XTB=1.5 MJE=.4202 VJE=.736 CJE=128.61P MJC=.4314
+ VJC=.7333 CJC=17.392P TF=1.59N TR=2.12U)
*   Motorola 350 Volt  .3 Amp  100 MHz  SiNPN  Transistor  05-16-1991
*PINOUT TO-92 3 2 1
**********
*SRC=MPSW42;MPSW42;BJTs NPN;High Voltage;300V 500mA
.MODEL MPSW42 NPN (IS=8.88F NF=1.02 BF=103 VAF=311 IKF=90M
+ ISE=2.98P NE=2 BR=4 NR=1 VAR=24 IKR=.135 RE=.673 RB=.692
+ RC=69.2M XTB=1.5 CJE=54.5P CJC=15.1P TF=2.27N TR=138N)
*   300 Volt  .5 Amp  70 MHz  SiNPN  Transistor  05-16-1991
*PINOUT TO-92 3 2 1
**********
*SRC=MPSW43;MPSW43;BJTs NPN;High Voltage;200V 500mA
.MODEL MPSW43 NPN (IS=8.88F NF=1.02 BF=103 VAF=254 IKF=90M
+ ISE=2.98P NE=2 BR=4 NR=1 VAR=24 IKR=.135 RE=.673 RB=.692
+ RC=69.2M XTB=1.5 CJE=54.5P CJC=17.2P TF=2.27N TR=138N)
*   200 Volt  .5 Amp  70 MHz  SiNPN  Transistor  05-16-1991
*PINOUT TO-92 3 2 1
**********
*SRC=BF469S;BF469S;BJTs NPN;Amplifier;250V .03A
.MODEL BF469S NPN (IS=3.04F NF=1 BF=497 VAF=284 IKF=18M ISE=612F NE=2
+ BR=4 NR=1 VAR=20 IKR=27M RE=1.71 RB=6.87 RC=.687 XTB=1.5
+ CJE=276P VJE=1.1 MJE=.5 CJC=118P VJC=.3 MJC=.3 TF=2.66N TR=1.84U)
*  250 Volt  30M Amp  60 MHz  SiNPN  Transistor 8-13-1991
*PINOUT TO-92 3 2 1
**********
*SRC=BF471S;BF471S;BJTs NPN;Amplifier;300V .03A
.MODEL BF471S NPN (IS=3.04F NF=1 BF=468 VAF=311 IKF=18M ISE=650F NE=2
+ BR=4 NR=1 VAR=20 IKR=27M RE=1.71 RB=6.87 RC=.687 XTB=1.5
+ CJE=276P VJE=1.1 MJE=.5 CJC=118P VJC=.3 MJC=.3 TF=2.66N TR=1.84U)
*  300 Volt  30M Amp  60 MHz  SiNPN  Transistor  8-13-1991
*PINOUT TO-92 3 2 1
**********
*SRC=BSV52;BSV52;BJTs NPN;Switching;12V .2A
.MODEL BSV52 NPN (IS=20.3F NF=1 BF=130 VAF=62.3 IKF=.12 ISE=15.6P NE=2
+ BR=4 NR=1 VAR=20 IKR=.18 RE=1.71 RB=6.86 RC=.686 XTB=1.5
+ CJE=8.52P VJE=1.1 MJE=.5 CJC=5.99P VJC=.3 MJC=.3 TF=380P TR=5.1N)
*  Motorola 12 Volt  .2 Amp  400 MHz  SiNPN  Transistor  11-27-1991
*PINOUT SOT-23 3 1 2
**********
*SRC=BSR14;BSR14;BJTs NPN;Amplifier;40V .8A
.MODEL BSR14 NPN (IS=81.2F NF=1 BF=260 VAF=113 IKF=.48 ISE=31.2P NE=2
+ BR=4 NR=1 VAR=20 IKR=.72 RE=.877 RB=3.5 RC=.35 XTB=1.5
+ CJE=77.2P VJE=1.1 MJE=.51 CJC=13.1P VJC=.3 MJC=.3 TF=640P TR=382N)
*  Philips 40 Volt  .8 Amp  250 MHz  SiNPN  Transistor  11-27-1991
*PINOUT SOT-23 3 1 2
**********
*SRC=BSR13;BSR13;BJTs NPN;Amplifier;30V .8A
.MODEL BSR13 NPN (IS=81.2F NF=1 BF=260 VAF=98.6 IKF=.48 ISE=31.2P NE=2
+ BR=4 NR=1 VAR=20 IKR=.72 RE=.877 RB=3.5 RC=.35 XTB=1.5
+ CJE=62.2P VJE=1.1 MJE=.5 CJC=23.1P VJC=.3 MJC=.3 TF=640P TR=382N)
*  Philips 30 Volt  .8 Amp  250 MHz  SiNPN  Transistor  11-27-1991
*PINOUT SOT-23 3 1 2
**********
*SRC=BC635;BC635;BJTs NPN;Amplifier;45V 1A
.MODEL BC635 NPN (IS=19.5F NF=.95 BF=285 VAF=120 IKF=.5 ISE=36.1P NE=2
+ BR=4 NR=1 VAR=20 IKR=.75 RE=.131 RB=.726 RC=56.6M XTB=1.5
+ CJE=60.3P VJE=1.1 MJE=.5 CJC=20.2P VJC=.3 MJC=.3 TF=800P TR=552N)
*  Motorola 45 Volt  1 Amp  200 MHz  SiNPN  Transistor  11-27-1991
*PINOUT TO-92 3 2 1
**********
*SRC=BC637;BC637;BJTs NPN;Amplifier;60V 1A
.MODEL BC637 NPN (IS=19.5F NF=1 BF=285 VAF=139 IKF=.5 ISE=36.1P NE=2
+ BR=4 NR=1 VAR=20 IKR=.75 RE=.131 RB=.526 RC=52.6M XTB=1.5
+ CJE=60.3P VJE=1.1 MJE=.5 CJC=20.2P VJC=.3 MJC=.3 TF=800P TR=552N)
*  Motorola 60 Volt  1 Amp  200 MHz  SiNPN  Transistor  11-27-1991
*PINOUT TO-92 3 2 1
**********
*SRC=BC639;BC639;BJTs NPN;Amplifier;80V 1A
.MODEL BC639 NPN (IS=19.5F NF=.97 BF=285 VAF=161 IKF=.5 ISE=36.1P NE=2
+ BR=4 NR=1 VAR=20 IKR=.75 RE=.131 RB=.626 RC=52.6M XTB=1.5
+ CJE=60.3P VJE=1.1 MJE=.5 CJC=20.2P VJC=.3 MJC=.3 TF=800P TR=552N)
*  Motorola 80 Volt  1 Amp  200 MHz  SiNPN  Transistor  11-27-1991
*PINOUT TO-92 3 2 1
**********
*SRC=2N2102;QN2102;BJTs NPN;Gen. Purpose;65V 1A
.MODEL QN2102 NPN (IS=1.12F NF=1 BF=127 VAF=145 IKF=.5 ISE=2.79P NE=2
+ BR=4 NR=1 VAR=28 IKR=.75 RE=.376 RB=1.5 RC=.15 XTB=1.5
+ CJE=60.3P VJE=1.1 MJE=.5 CJC=17.3P VJC=.3 MJC=.3 TF=2.65N TR=1.7U)
* 65 Volt 1 Amp 60 MHz  SiNPN Motorola  Transistor  06-11-1993
*PINOUT TO-39 3 2 1
**********
*SRC=2N2453;QN2453;BJTs NPN;Amplifier;30V .05A
.MODEL QN2453 NPN (IS=163N NF=1 BF=636 VAF=98.6 IKF=50M ISE=2.13N NE=2
+ BR=4 NR=1 VAR=28 IKR=75M RE=96.3 RB=385 RC=38.5 XTB=1.5
+ CJE=12P VJE=1.1 MJE=.5 CJC=23.1P VJC=.3 MJC=.3 TF=2.65N TR=1.7U)
* 30 Volt 50M Amp 60 MHz SiNPN Motorola Transistor  06-14-1993
**********
*SRC=2N2453A;QN2453A;BJTs NPN;Amplifier;50V .05A
.MODEL QN2453A NPN (IS=163N NF=1 BF=636 VAF=127 IKF=50M ISE=2.13N NE=2
+ BR=4 NR=1 VAR=28 IKR=75M RE=96.3 RB=385 RC=38.5 XTB=1.5
+ CJE=12P VJE=1.1 MJE=.5 CJC=23.1P VJC=.3 MJC=.3 TF=2.65N TR=1.7U)
*  50 Volt  50M Amp  60 MHz  SiNPN  Motorola Transistor  06-14-1993
*PINOUT CASE_654-07 1 2 3 ; 7 6 5 
**********
*SRC=2N2920;QN2920;BJTs NPN;Amplifier;60V .03A
.MODEL QN2920 NPN (IS=12.6F NF=1 BF=636 VAF=139 IKF=50M ISE=592F NE=2
+ BR=4 NR=1 VAR=24 IKR=75M RE=156 RB=626 RC=62.6 XTB=1.5
+ CJE=12P VJE=1.1 MJE=.5 CJC=9.47P VJC=.3 MJC=.3 TF=2.65N TR=1.7U)
*  60 Volt  30M Amp  60 MHz  SiNPN Motorola Transistor  06-14-1993
*PINOUT CASE_654-07 1 2 3 ; 7 6 5 
**********
*SRC=2N2243;QN2243;BJTs NPN;Amplifier;80V .5A
.MODEL QN2243 NPN (IS=9.79F NF=1 BF=110 VAF=161 IKF=.3 ISE=9.9P NE=2
+ BR=4 NR=1 VAR=28 IKR=.45 RE=.263 RB=1.05 RC=.105 XTB=1.5
+ CJE=62.2P VJE=1.1 MJE=.5 CJC=23.6P VJC=.3 MJC=.3 TF=1.59N TR=510N)
* Motorola 80 Volt  .5 Amp  100 MHz  SiNPN  Transistor  07-27-1993
*PINOUT TO-39 3 2 1
**********
*SRC=2SC458;QSC458;BJTs NPN;Switching;30V .1A
.MODEL QSC458 NPN (IS=2.36F NF=1 BF=225 VAF=98.6 IKF=60M ISE=3.23P NE=2
+ BR=4 NR=1 VAR=20 IKR=90M RE=.915 RB=3.66 RC=.366 XTB=1.5
+ CJE=9.26P VJE=1.1 MJE=.5 CJC=11.5P VJC=.3 MJC=.3 TF=374P TR=442N)
* Hitachi 30 Volt  0.1 Amp  425 MHz Hitachi SiNPN  Transistor  06-18-1993
*PINOUT TO-92 2 3 1
**********
*SRC=2SC641;QSC641;BJTs NPN;Switching;40V .1A 
.MODEL QSC641 NPN (IS=44.8F NF=1 BF=142 VAF=113 IKF=.1 ISE=48.9P NE=2
+ BR=4 NR=1 VAR=20 IKR=.15 RE=1.51 RB=6.06 RC=.606 XTB=1.5
+ CJE=12.4P VJE=1.1 MJE=.5 CJC=17.3P VJC=.3 MJC=.3 TF=397P TR=20.4N)
* Hitachi 40 Volt 0.1 Amp  400 MHz Hitachi SiNPN  Transistor  06-18-1993
*PINOUT TO-92 2 3 1
**********
*SRC=2SC1213A;QSC1213A;BJTs NPN;Amplifier;50V .5A
.MODEL QSC1213A NPN (IS=3.44F NF=1 BF=242 VAF=127 IKF=.5 ISE=23.8P NE=2
+ BR=4 NR=1 VAR=16 IKR=.75 RE=.276 RB=1.1 RC=.11 XTB=1.5
+ CJE=66.3P VJE=1.1 MJE=.5 CJC=20.2P VJC=.3 MJC=.3 TF=1.32N TR=680N)
* Hitachi 50 Volt 0.5 Amp  120 MHz Hitachi SiNPN  Transistor  06-18-1993
*PINOUT TO-92 2 3 1
**********
*SRC=BCY58-9;BCY58_9;BJTs NPN;Amplifier;32V .2A
.MODEL BCY58_9 NPN (IS=4.91F NF=1 BF=401 VAF=101 IKF=.1 ISE=568F NE=2
+ BR=4 NR=1 VAR=28 IKR=.15 RE=.532 RB=2.13 RC=.213 XTB=1.5
+ CJE=18P VJE=1.1 MJE=.5 CJC=14.4P VJC=.3 MJC=.3 TF=530P TR=425N)
* Phillips 32 Volt 0.2 Amp  300 MHz Phillips SiNPN  Transistor  06-18-1993
*PINOUT TO-18 3 2 1
**********
*SRC=BCY58-7;BCY58_7;BJTs NPN;Amplifier;32V .2A
.MODEL BCY58_7 NPN (IS=4.91F NF=1 BF=1K VAF=101 IKF=.1 ISE=8.87P NE=2
+ BR=4 NR=1 VAR=28 IKR=.15 RE=.532 RB=2.13 RC=.213 XTB=1.5
+ CJE=18P VJE=1.1 MJE=.5 CJC=14.4P VJC=.3 MJC=.3 TF=530P TR=425N)
* Phillips 32 Volt 0.2 Amp  300 MHz Phillips SiNPN  Transistor  06-18-1993
*PINOUT TO-18 3 2 1
**********
*SRC=BCY59-10;BCY59_10;BJTs NPN;Amplifier;45V .2A
.MODEL BCY59_10 NPN (IS=4.91F NF=1 BF=566 VAF=120 IKF=.1 ISE=403F NE=2
+ BR=4 NR=1 VAR=28 IKR=.15 RE=.532 RB=2.13 RC=.213 XTB=1.5
+ CJE=18P VJE=1.1 MJE=.5 CJC=14.4P VJC=.3 MJC=.3 TF=530P TR=425N)
* Phillips 45 Volt 0.2 Amp  300 MHz Phillips SiNPN  Transistor  06-18-1993
*PINOUT TO-18 3 2 1
**********
*SRC=BCY59-9;BCY59_9;BJTs NPN;Amplifier;45V .2A
.MODEL BCY59_9 NPN (IS=4.91F NF=1 BF=401 VAF=120 IKF=.1 ISE=568F NE=2
+ BR=4 NR=1 VAR=28 IKR=.15 RE=.532 RB=2.13 RC=.213 XTB=1.5
+ CJE=18P VJE=1.1 MJE=.5 CJC=14.4P VJC=.3 MJC=.3 TF=530P TR=425N)
* Phillips 45 Volt 0.2 Amp  300 MHz Phillips SiNPN  Transistor  06-18-1993
*PINOUT TO-18 3 2 1
**********
*SRC=BCY59-7;BCY59_7;BJTs NPN;Amplifier;45V .2A
.MODEL BCY59_7 NPN (IS=4.91F NF=1 BF=1K VAF=120 IKF=.1 ISE=8.87P NE=2
+ BR=4 NR=1 VAR=28 IKR=.15 RE=.532 RB=2.13 RC=.213 XTB=1.5
+ CJE=18P VJE=1.1 MJE=.5 CJC=14.4P VJC=.3 MJC=.3 TF=530P TR=425N)
* Phillips 45 Volt 0.2 Amp  300 MHz Phillips SiNPN  Transistor  06-18-1993
*PINOUT TO-18 3 2 1
**********
*SRC=BCY65-7;BCY65_7;BJTs NPN;Amplifier;60V .2A
.MODEL BCY65_7 NPN (IS=17.3P NF=1 BF=625 VAF=139 IKF=.2 ISE=527P NE=2
+ BR=4 NR=1 VAR=28 IKR=.3 RE=6.63 RB=26.5 RC=2.65 XTB=1.5
+ CJE=18P VJE=1.1 MJE=.5 CJC=17.3P VJC=.3 MJC=.3 TF=1.27N TR=510N)
* Phillips 60 Volt 0.2 Amp  125 MHz Phillips SiNPN  Transistor  06-18-1993
*PINOUT TO-18 3 2 1
**********
*SRC=BCY65-9;BCY65_9;BJTs NPN;Amplifier;60V .2A
.MODEL BCY65_9 NPN (IS=17.3P NF=1 BF=396 VAF=139 IKF=.2 ISE=33.7P NE=2
+ BR=4 NR=1 VAR=28 IKR=.3 RE=6.63 RB=26.5 RC=2.65 XTB=1.5
+ CJE=18P VJE=1.1 MJE=.5 CJC=17.3P VJC=.3 MJC=.3 TF=1.27N TR=510N)
* Phillips 60 Volt 0.2 Amp  125 MHz Phillips SiNPN  Transistor  06-18-1993
*PINOUT TO-18 3 2 1
**********
*SRC=BCY65-8;BCY65_8;BJTs NPN;Amplifier;60V .2A
.MODEL BCY65_8 NPN (IS=17.3P NF=1 BF=302 VAF=139 IKF=.2 ISE=31P NE=2
+ BR=4 NR=1 VAR=28 IKR=.3 RE=6.63 RB=26.5 RC=2.65 XTB=1.5
+ CJE=18P VJE=1.1 MJE=.5 CJC=17.3P VJC=.3 MJC=.3 TF=1.27N TR=510N)
* Phillips 60 Volt 0.2 Amp  125 MHz Phillips SiNPN  Transistor  06-18-1993
*PINOUT TO-18 3 2 1
**********
*SRC=BCY58-8;BCY58_8;BJTs NPN;Amplifier;32V .2A
.MODEL BCY58_8 NPN (IS=6.55F NF=1 BF=302 VAF=101 IKF=.2 ISE=603F NE=2
+ BR=4 NR=1 VAR=28 IKR=.3 RE=1.06 RB=4.26 RC=.426 XTB=1.5
+ CJE=18P VJE=1.1 MJE=.5 CJC=14.4P VJC=.3 MJC=.3 TF=530P TR=425N)
* Phillips 32 Volt 0.2 Amp  300 MHz Phillips SiNPN  Transistor  06-18-1993
*PINOUT TO-18 3 2 1
**********
*SRC=BSY95A;BSY95A;BJTs NPN;Switching;20V .1A
.MODEL BSY95A NPN (IS=1.16P NF=1 BF=400 VAF=80.5 IKF=.1 ISE=341P NE=2
+ BR=4 NR=1 VAR=20 IKR=.15 RE=15.6 RB=62.6 RC=6.26 XTB=1.5
+ CJE=60.3P VJE=1.1 MJE=.5 CJC=16.8P VJC=.3 MJC=.3 TF=795P TR=85N)
* Phillips 20 Volt 0.1 Amp  200 MHz Phillips SiNPN  Transistor  06-19-1993
*PINOUT TO-18 3 2 1
**********
*SRC=2N6715;QN6715;BJTs NPN;Zetex;
.MODEL QN6715 NPN IS=2.218E-13 NF=.9956 BF=230 IKF=2 VAF=100 ISE=2.9E-14
+ NE=1.35 NR=.995 BR=56 IKR=1 VAR=30 ISC=2.971E-13 NC=1.321 RB=.04
+ RE=.075 RC=.069 CJC=51E-12 MJC=.42 VJC=.595 CJE=318E-12 TF=.77E-9
+ TR=27E-9
* ZETEX Transistor  06-19-1993
**********
*SRC=BC107BP;BC107BP;BJTs NPN;Zetex;
.MODEL BC107BP NPN IS=1.8E-14 ISE=5.0E-14 NF=.9955 NE=1.46 BF=400 BR=35.5