**********
* Copyright Intusoft 1988-1997
* All Rights Reserved
**********
**********
*SRC=BCY70;BCY70;BJTs PNP;Gen. Purpose;40V 200mA
.MODEL BCY70 PNP (IS=2.03E-14 NF=1.0 BF=321  VAF=114 
+ IKF=7.0E-02 ISE=4.45E-13 NE=2.0 BR=4  NR=1.0 VAR=20 
+ XTB=1.5 RE=6.8E-01 RB=2.7E+00 RC=2.7E-01
+ CJE=9.8E-12 CJC=9.3E-12 TF=3.2E-10 TR=1.5E-07)
*  40 Volt  0.20 Amp  500 MHz  SiPNP  Transistor  06-27-1990
*  Philips
**********
*SRC=BCY71;BCY71;BJTs PNP;Gen. Purpose;45V 200mA
.MODEL BCY71 PNP (IS=2.03E-14 NF=1.0 BF=321  VAF=121 
+ IKF=7.0E-02 ISE=4.45E-13 NE=2.0 BR=4  NR=1.0 VAR=20 
+ XTB=1.5 RE=6.8E-01 RB=2.7E+00 RC=2.7E-01
+ CJE=9.8E-12 CJC=9.3E-12 TF=3.2E-10 TR=1.5E-07)
*  45 Volt  0.20 Amp  500 MHz  SiPNP  Transistor  06-27-1990
*  Philips
**********
*SRC=BCY72;BCY72;BJTs PNP;Gen. Purpose;25V 200mA
.MODEL BCY72 PNP (IS=2.03E-14 NF=1.0 BF=321  VAF=90 
+ IKF=7.0E-02 ISE=4.45E-13 NE=2.0 BR=4  NR=1.0 VAR=20 
+ XTB=1.5 RE=6.8E-01 RB=2.7E+00 RC=2.7E-01
+ CJE=9.8E-12 CJC=9.3E-12 TF=3.2E-10 TR=1.5E-07)
*  25 Volt  0.20 Amp  500 MHz  SiPNP  Transistor  06-27-1990
*  Philips
**********
*SRC=2N4402;QN4402;BJTs PNP;Gen. Purpose;40V 600mA
.MODEL QN4402 PNP (IS=1.59E-14 NF=1.0 BF=150  VAF=114 
+ IKF=2.5E+02 ISE=8.41E-12 NE=2.0 BR=4  NR=1.0 VAR=20 
+ XTB=1.5 RE=7.1E-01 RB=2.9E+00 RC=2.9E-01
+ CJE=3.0E-11 CJC=2.0E-11 TF=7.9E-10 TR=7.7E-08)
+ MJC=.301 VJC=.3 MJE=.259 VJE=.379
*  40 Volt  0.60 Amp  200 MHz  SiPNP  Transistor  07-23-1990
*  Motorola
**********
*SRC=2N2955;QN2955;BJTs PNP;Germanium;25V 100mA
.MODEL QN2955 PNP (IS=1.25N NF=1 BF=78 VAF=90 IKF=60M
+ ISE=4.57N NE=2 BR=4 NR=1 VAR=14 IKR=90M RE=2.63 RB=10.5
+ RC=1.05 XTB=1.5 CJE=27.9P CJC=8.22P TF=437P TR=17N)
*   25 Volt  .1 Amp  363 MHz  GePNP  Transistor  02-20-1991
**********
*SRC=2N2907;QN2907;BJTs PNP;Gen. Purpose;40V 600mA
.MODEL QN2907 PNP (IS=1.1E-12 BF=200 BR=6 NF=1.21     
+ RC=.6 IKF=100E-3 VAF=50 XTB=1.5 NE=1.9 ISE=1.3E-11      
+ CJE=23PF VJE=.85 MJE=1.25 CJC=19PF VJC=.5 MJC=.2
+ TF=5E-10 TR=34E-9)
**********
*SRC=2N3906;QN3906;BJTs PNP;Gen. Purpose;40V 200mA
.MODEL QN3906 PNP(IS=4E-14 BF=400 VAF=50 IKF=.02 ISE=7E-15  
+ BR=7.5  RC=2.4  XTB=1.5 NE=1.16
+ CJE=6.3PF TR=23E-9 CJC=5.8PF TF=5E-10 KF=6E-16 AF=1.0)  
**********
*SRC=2N4403;QN4403;BJTs PNP;Gen. Purpose;40V 600mA
.MODEL QN4403 PNP (IS=3.74F NF=1 BF=260 VAF=113 IKF=.36
+ ISE=5.80P NE=2 BR=4 NR=1 VAR=20 IKR=.54 RE=.713 RB=2.85
+ RC=.285 XTB=1.5 CJE=35.5P CJC=20.4P TF=794P TR=95.6F)
*	Motorola
*   40 Volt  .6 Amp  200 MHz  SiPNP  Transistor  12-01-1990
**********
*SRC=2N5086;QN5086;BJTs PNP;Amplifier;50V 50mA
.MODEL QN5086 PNP (IS=2.293238E-18 NF=1 BF=650 VAF=127 IKF=30M
+ ISE=16.5F NE=2 BR=4 NR=1 VAR=12 IKR=45M RE=13.1 RB=52.6
+ RC=5.26 XTB=1.5 CJE=8.87P CJC=7.83P TF=3.97N TR=127F)
*	Motorola
*   50 Volt  .05 Amp  40 MHz  SiPNP  Transistor  12-01-1990
**********
*SRC=2N5415;QN5415;BJTs PNP;Power;200V .5A
.MODEL QN5415 PNP (IS=50.7F NF=1 BF=65 VAF=254 IKF=.35 ISE=84.3P NE=2
+ BR=4 NR=1 VAR=16 IKR=.525 RE=.103 RB=.412 RC=41.2M XTB=1.5
+ CJE=141P VJE=1.1 MJE=.5 CJC=42.6P VJC=.3 MJC=.3 TF=3.97N TR=2.76U)
*  200 Volt  .5 Amp  40 MHz  SiPNP  Transistor  08-16-1995
* 2N5415, MOTOROLA SMALL-SIGNAL TRANSISITOR DATA BOOK,
* DL-126, P.4-99.
**********
*SRC=2N3638;QN3638;BJTs PNP;Gen. Purpose;35V 500mA
.MODEL QN3638 PNP (IS=3.75F NF=1 BF=273 VAF=106 IKF=.8
+ ISE=8.25P NE=2 BR=4 NR=1 VAR=24 IKR=1.2 RE=1.16 RB=4.65
+ RC=.465 XTB=1.5 CJE=19.8P CJC=14.5P TF=977P TR=85N)
*	National
*   35 Volt  .5 Amp  162 MHz  SiPNP  Transistor  01-26-1991
**********
*SRC=2N3640;QN3640;BJTs PNP;Switching;15V 100mA
.MODEL QN3640 PNP (IS=.253F NF=1 BF=195 VAF=69.7 IKF=60M
+ ISE=822F NE=2 BR=4 NR=1 VAR=18 IKR=90M RE=4.63 RB=18.5
+ RC=1.85 XTB=1.5 CJE=2.6P CJC=2.8P TF=106P TR=4.25N)
*	National
*   15 Volt  .1 Amp  1.5K MHz  SiPNP  Transistor  01-26-1991
**********
*SRC=BC369;BC369;BJTs PNP;Gen. Purpose;20V 2A
.MODEL BC369 PNP (IS=17.9F NF=1 BF=265 VAF=90 IKF=1.2
+ ISE=22.6P NE=2 BR=4 NR=1 VAR=20 IKR=1.8 RE=.463 RB=1.85
+ RC=.185 XTB=1.5 CJE=229P CJC=67.4P TF=908P TR=276N)
*	National
*   25 Volt  2 Amp  175 MHz  SiPNP  Transistor  01-26-1991
**********
*SRC=BC557;BC557;BJTs PNP;Gen. Purpose;45V 500mA
.MODEL BC557 PNP (IS=50.7F NF=1 BF=325 VAF=120 IKF=.3
+ ISE=15.6P NE=2 BR=4 NR=1 VAR=24 IKR=.45 RE=.907 RB=3.63
+ RC=.363 XTB=1.5 CJE=20.8P CJC=12.5P TF=611P TR=138N)
*	National
*   45 Volt  .5 Amp  260 MHz  SiPNP  Transistor  01-26-1991
**********
*SRC=2N2905;QN2905;BJTs PNP;Gen. Purpose;40V 600mA
.MODEL QN2905 PNP (IS=3.81E-13 NF=1.0 BF=260  VAF=114 
+ IKF=3.6E-01 ISE=5.85E-11 NE=2.0 BR=4  NR=1.0 VAR=20 
+ XTB=1.5 RE=1.2E+00 RB=4.8E+00 RC=4.8E-01
+ CJE=4.6E-11 CJC=1.9E-11 TF=7.9E-10 TR=2.1E-08)
*  40 Volt  0.60 Amp  200 MHz  SiPNP  Transistor  08-06-1990
**********
*SRC=2N4126;QN4126;BJTs PNP;Amplifier;25V 200mA
.MODEL QN4126 PNP (IS=1.27E-13 NF=1.0 BF=312  VAF=90 
+ IKF=1.2E-01 ISE=1.63E-11 NE=2.0 BR=4  NR=1.0 VAR=16 
+ XTB=1.5 RE=3.6E+00 RB=1.5E+01 RC=1.5E+00
+ CJE=5.3E-12 CJC=5.9E-12 TF=6.4E-10 TR=6.4E-08)
*  25 Volt  0.20 Amp  250 MHz  SiPNP  Transistor  08-06-1990
**********
*SRC=2N3135;QN3135;BJTs PNP;Switching;35V 600mA
.MODEL QN3135 PNP (IS=1.40E-14 NF=1.0 BF=130  VAF=106 
+ IKF=6.0E-01 ISE=2.90E-11 NE=2.0 BR=4  NR=1.0 VAR=16 
+ XTB=1.5 RE=1.61E+00 RB=4.4 RC=.44
+ CJE=4.6E-11 CJC=2.4E-11 TF=4.0E-10 TR=6.4E-08)
**********
*SRC=2N5771;QN5771;BJTs PNP;Switching;15V 50mA
.MODEL QN5771 PNP (IS=4.99E-16 NF=1.0 BF=130  VAF=70 
+ IKF=3.0E-02 ISE=1.22E-12 NE=2.0 BR=4  NR=1.0 VAR=18 
+ XTB=1.5 RE=5.6E+00 RB=2.3E+01 RC=2.3E+00
+ CJE=3.0E-12 CJC=4.9E-12 TF=1.6E-10 TR=6.4E-09)
**********
*SRC=2N4209;QN4209;BJTs PNP;Switching;15V 200mA
.MODEL QN4209 PNP (IS=2.45E-14 NF=1.0 BF=156  VAF=70 
+ IKF=4.0E-01 ISE=2.61E-11 NE=2.0 BR=4  NR=1.0 VAR=18 
+ XTB=1.5 RE=5.6E+00 RB=2.3E+01 RC=2.3E+00
+ CJE=2.8E-12 CJC=2.9E-12 TF=1.6E-10 TR=4.2E-09)
**********
*SRC=2N4258;QN4258;BJTs PNP;Switching;12V 100mA
.MODEL QN4258 PNP (IS=2.20E-14 NF=1.0 BF=156  VAF=62 
+ IKF=4.0E-01 ISE=2.47E-11 NE=2.0 BR=4  NR=1.0 VAR=18 
+ XTB=1.5 RE=4.6E+00 RB=1.9E+01 RC=1.9E+00
+ CJE=2.8E-12 CJC=2.9E-12 TF=1.8E-10 TR=4.2E-09)
**********
*SRC=2N2905A;QN2905A;BJTs PNP;Gen. Purpose;60V 600mA
.MODEL QN2905A PNP (IS=6.09E-14 NF=1.0 BF=325  VAF=139 
+ IKF=5.0E-01 ISE=2.21E-11 NE=2.0 BR=4  NR=1.0 VAR=20 
+ XTB=1.5 RE=1.6E+00 RB=6.3E+00 RC=6.3E-01
+ CJE=1.5E-11 CJC=2.0E-11 TF=6.4E-10 TR=5.3E-08)
**********
*SRC=2N2904;QN2904;BJTs PNP;Gen. Purpose;40V 600mA
.MODEL QN2904 PNP (IS=381F NF=1 BF=51.5 VAF=113 IKF=.14
+ ISE=46.1P NE=2 BR=4 NR=1 VAR=20 IKR=.21 RE=.552 RB=2.21
+ RC=.221 XTB=1.5 CJE=15.6P CJC=20.8P TF=636P TR=63.7N)
*   40 Volt  .6 Amp  250 MHz  SiPNP  Transistor  04-11-1991
**********
*SRC=2N2906;QN2906;BJTs PNP;Gen. Purpose;40V 600mA
.MODEL QN2906 PNP (IS=381F NF=1 BF=51.5 VAF=113 IKF=.14
+ ISE=46.1P NE=2 BR=4 NR=1 VAR=20 IKR=.21 RE=.552 RB=2.21
+ RC=.221 XTB=1.5 CJE=15.6P CJC=20.8P TF=636P TR=63.7N)
*   40 Volt  .6 Amp  250 MHz  SiPNP  Transistor  04-11-1991
**********
*SRC=2N3485;QN3485;BJTs PNP;Switching;40V 600mA
.MODEL QN3485 PNP (IS=381F NF=1 BF=51.5 VAF=113 IKF=.14
+ ISE=46.1P NE=2 BR=4 NR=1 VAR=20 IKR=.21 RE=.552 RB=2.21
+ RC=.221 XTB=1.5 CJE=15.6P CJC=20.8P TF=636P TR=63.7N)
*   40 Volt  .6 Amp  250 MHz  SiPNP  Transistor  04-11-1991
**********
*SRC=2N2907A;QN2907A;BJTs PNP;Gen. Purpose;60V 600mA
.MODEL QN2907A PNP (IS=381F NF=1 BF=154 VAF=139 IKF=.14
+ ISE=15.3P NE=2 BR=4 NR=1 VAR=20 IKR=.21 RE=.552 RB=2.21
+ RC=.221 XTB=1.5 CJE=15.6P CJC=20.8P TF=636P TR=63.7N)
*   60 Volt  .6 Amp  250 MHz  SiPNP  Transistor  04-11-1991
**********
*SRC=2N3486;QN3486;BJTs PNP;Switching;40V 600mA
.MODEL QN3486 PNP (IS=381F NF=1 BF=77.2 VAF=113 IKF=.14
+ ISE=30.7P NE=2 BR=4 NR=1 VAR=20 IKR=.21 RE=.352 RB=1.21
+ RC=.221 XTB=1.5 CJE=15.6P CJC=20.8P TF=636P TR=63.7N)
*   Motorola 40 Volt  .6 Amp  250 MHz  SiPNP  Transistor  04-11-1991
**********
*SRC=2N3486A;QN3486A;BJTs PNP;Switching;60V 600mA
.MODEL QN3486A PNP (IS=381F NF=1 BF=154 VAF=139 IKF=.14
+ ISE=15.3P NE=2 BR=4 NR=1 VAR=20 IKR=.21 RE=.552 RB=2.21
+ RC=.221 XTB=1.5 CJE=15.6P CJC=20.8P TF=636P TR=63.7N)
*   60 Volt  .6 Amp  250 MHz  SiPNP  Transistor  04-11-1991
**********
*SRC=2N2904A;QN2904A;BJTs PNP;Gen. Purpose;60V 600mA
.MODEL QN2904A PNP (IS=381F NF=1 BF=82.4 VAF=139 IKF=.14
+ ISE=28.8P NE=2 BR=4 NR=1 VAR=20 IKR=.21 RE=.552 RB=2.21
+ RC=.221 XTB=1.5 CJE=15.6P CJC=20.8P TF=636P TR=63.7N)
*   60 Volt  .6 Amp  250 MHz  SiPNP  Transistor  04-11-1991
**********
*SRC=2N2906A;QN2906A;BJTs PNP;Gen. Purpose;60V 600mA
.MODEL QN2906A PNP (IS=381F NF=1 BF=82.4 VAF=139 IKF=.14
+ ISE=28.8P NE=2 BR=4 NR=1 VAR=20 IKR=.21 RE=.552 RB=2.21
+ RC=.221 XTB=1.5 CJE=15.6P CJC=20.8P TF=636P TR=63.7N)
*   60 Volt  .6 Amp  250 MHz  SiPNP  Transistor  04-11-1991
**********
*SRC=2N3485A;QN3485A;BJTs PNP;Switching;60V 600mA
.MODEL QN3485A PNP (IS=381F NF=1 BF=82.4 VAF=139 IKF=.14
+ ISE=28.8P NE=2 BR=4 NR=1 VAR=20 IKR=.21 RE=.552 RB=2.21
+ RC=.221 XTB=1.5 CJE=15.6P CJC=20.8P TF=636P TR=63.7N)
*   60 Volt  .6 Amp  250 MHz  SiPNP  Transistor  04-11-1991
**********
*SRC=2N5087;QN5087;BJTs PNP;Amplifier;50V 50mA
.MODEL QN5087 PNP (IS=5.05F NF=1 BF=415 VAF=127 IKF=64M
+ ISE=502F NE=2 BR=4 NR=1 VAR=12 IKR=96M RE=1.03 RB=4.12
+ RC=.412 XTB=1.5 CJE=9.06P CJC=7.01P TF=3.18N TR=170N)
*   50 Volt  .05 Amp  50 MHz  SiPNP  Transistor  04-12-1991
**********
*SRC=BC327-16;BC327-16;BJTs PNP;Gen. Purpose;45V 500mA
.MODEL BC327-16 PNP (IS=3.696E-17 NF=1 BF=133 VAF=120 IKF=1
+ ISE=467F NE=2 BR=4 NR=1 VAR=20 IKR=1.5 RE=.563 RB=2.25
+ RC=.225 XTB=1.5 CJE=104P CJC=46.8P TF=722P TR=161N)
*	National
*   45 Volt  1 Amp  220 MHz  SiPNP  Transistor  01-26-1991
**********
*SRC=BC327;BC327;BJTs PNP;Amplifier;45V 500mA
.MODEL BC327 PNP (IS=5.224E-17 NF=1 BF=208 VAF=120 IKF=.48
+ ISE=989F NE=2 BR=4 NR=1 VAR=20 IKR=.72 RE=.214 RB=.857
+ RC=85.7M XTB=1.5 CJE=71.0P CJC=28.8P TF=794P TR=127N)
*   Siemens 45 Volt  .8 Amp  200 MHz  SiPNP  Transistor  04-12-1991
**********
*SRC=BC328;BC328;BJTs PNP;Amplifier;25V 800mA
.MODEL BC328 PNP (IS=5.224E-17 NF=1 BF=208 VAF=90 IKF=.48
+ ISE=989F NE=2 BR=4 NR=1 VAR=20 IKR=.72 RE=.214 RB=.857
+ RC=85.7M XTB=1.5 CJE=71.0P CJC=28.8P TF=794P TR=127N)
*   Siemens 25 Volt  .8 Amp  200 MHz  SiPNP  Transistor  04-12-1991
**********
*SRC=BC328-16;BC328-16;BJTs PNP;Amplifier;25V 800mA
.MODEL BC328-16 PNP (IS=2.136E-17 NF=1 BF=325 VAF=90 IKF=.48
+ ISE=405F NE=2 BR=4 NR=1 VAR=20 IKR=.72 RE=.663 RB=2.65
+ RC=.265 XTB=1.5 CJE=39.6P CJC=16.6P TF=611P TR=174N)
*	National
*   25 Volt  .8 Amp  260 MHz  SiPNP  Transistor  02-20-1991
**********
*SRC=BDB02A;BDB02A;BJTs PNP;Gen. Purpose;45V 500mA
.MODEL BDB02A PNP (IS=50.2F NF=1 BF=206 VAF=120 IKF=.28
+ ISE=5.92P NE=2 BR=4 NR=1 VAR=20 IKR=.42 RE=.133 RB=.532
+ RC=53.2M XTB=1.5 CJE=93.9P CJC=29.3P TF=2.12N TR=138N)
*   45 Volt  .5 Amp  75 MHz  SiPNP  Transistor  04-13-1991
**********
*SRC=BDB02B;BDB02B;BJTs PNP;Gen. Purpose;60V 500mA
.MODEL BDB02B PNP (IS=50.2F NF=1 BF=206 VAF=139 IKF=.28
+ ISE=5.92P NE=2 BR=4 NR=1 VAR=20 IKR=.42 RE=.133 RB=.532
+ RC=53.2M XTB=1.5 CJE=93.9P CJC=29.3P TF=2.12N TR=138N)
*   60 Volt  .5 Amp  75 MHz  SiPNP  Transistor  04-13-1991
**********
*SRC=BDB02C;BDB02C;BJTs PNP;Gen. Purpose;80V 500mA
.MODEL BDB02C PNP (IS=50.2F NF=1 BF=206 VAF=160 IKF=.28
+ ISE=5.92P NE=2 BR=4 NR=1 VAR=20 IKR=.42 RE=.133 RB=.532
+ RC=53.2M XTB=1.5 CJE=93.9P CJC=29.3P TF=2.12N TR=138N)
*   80 Volt  .5 Amp  75 MHz  SiPNP  Transistor  04-13-1991
**********
*SRC=BDB02D;BDB02D;BJTs PNP;Gen. Purpose;100V 500mA
.MODEL BDB02D PNP (IS=50.2F NF=1 BF=206 VAF=180 IKF=.28
+ ISE=5.92P NE=2 BR=4 NR=1 VAR=20 IKR=.42 RE=.133 RB=.532
+ RC=53.2M XTB=1.5 CJE=93.9P CJC=29.3P TF=2.12N TR=138N)
*   100 Volt  .5 Amp  75 MHz  SiPNP  Transistor  04-13-1991
**********
*SRC=BC856;BC856;BJTs PNP;Amplifier;65V 100mA
.MODEL BC856 PNP (IS=88.0F NF=1 BF=195 VAF=145 IKF=.1
+ ISE=4.93P NE=2 BR=4 NR=1 VAR=20 IKR=.15 RE=1.06 RB=4.26
+ RC=.426 XTB=1.5 CJE=28.3P CJC=8.22P TF=1.06N TR=61.6N)
*   65 Volt  .1 Amp  150 MHz  SiPNP  Transistor  04-13-1991
**********
*SRC=BC857;BC857;BJTs PNP;Amplifier;45V 100mA
.MODEL BC857 PNP (IS=88.0F NF=1 BF=195 VAF=120 IKF=.1
+ ISE=4.93P NE=2 BR=4 NR=1 VAR=20 IKR=.15 RE=1.06 RB=4.26
+ RC=.426 XTB=1.5 CJE=28.3P CJC=8.22P TF=1.06N TR=61.6N)
*   45 Volt  .1 Amp  150 MHz  SiPNP  Transistor  04-13-1991
**********
*SRC=BC858;BC858;BJTs PNP;Amplifier;30V 100mA
.MODEL BC858 PNP (IS=88.0F NF=1 BF=195 VAF=98.5 IKF=.1
+ ISE=4.93P NE=2 BR=4 NR=1 VAR=20 IKR=.15 RE=1.06 RB=4.26
+ RC=.426 XTB=1.5 CJE=28.3P CJC=8.22P TF=1.06N TR=61.6N)
*   30 Volt  .1 Amp  150 MHz  SiPNP  Transistor  04-13-1991
**********
*SRC=BCF70;BCF70;BJTs PNP;Gen. Purpose;45V 100mA
.MODEL BCF70 PNP (IS=87.5F NF=1 BF=304 VAF=120 IKF=.2
+ ISE=3.11P NE=2 BR=4 NR=1 VAR=20 IKR=.3 RE=1.04 RB=4.16
+ RC=.416 XTB=1.5 CJE=29.9P CJC=8.81P TF=1.06N TR=61.6N)
*   45 Volt  .1 Amp  150 MHz  SiPNP  Transistor  04-13-1991
**********
*SRC=BCP69;BCP69;BJTs PNP;Gen. Purpose;20V 1A
.MODEL BCP69 PNP (IS=.347F NF=1 BF=190 VAF=80.4 IKF=45
+ ISE=657F NE=2 BR=4 NR=1 VAR=20 IKR=67.5 RE=51.5M RB=.206
+ RC=20.6M XTB=1.5 CJE=219P CJC=64.6P TF=2.65N TR=195N)
*   20 Volt  1 Amp  60 MHz  SiPNP  Transistor  04-13-1991
**********
*SRC=MPSA55;MPSA55;BJTs PNP;Amplifier;60V 500mA
.MODEL MPSA55 PNP (IS=50.7F NF=1 BF=623 VAF=139 IKF=.145 ISE=52.7P NE=2
+ BR=4 NR=1 VAR=16 IKR=.217 RE=.103 RB=.412 RC=41.2M XTB=1.5
+ CJE=96.7P VJE=1.1 MJE=.5 CJC=33.1P VJC=.3 MJC=.3 TF=978P TR=679N)
*  60 Volt  .5 Amp  162 MHz  SiPNP  Transistor  08-16-1995
* MPSA55, MOTOROLA SMALL-SIGNAL TRANSISITOR DATA BOOK,
* DL-126, P.2-181.
**********
*SRC=MPSA56;MPSA56;BJTs PNP;Amplifier;80V .5A
.MODEL MPSA56 PNP (IS=50.7F NF=1 BF=208 VAF=161 IKF=.4 ISE=28.1P NE=2
+ BR=4 NR=1 VAR=16 IKR=.6 RE=.103 RB=.412 RC=41.2M XTB=1.5
+ CJE=96.7P VJE=1.1 MJE=.5 CJC=34.3P VJC=.3 MJC=.3 TF=978P TR=679N)
*  80 Volt  .5 Amp  162 MHz  SiPNP  Transistor  08-16-1995
*  MPSA56, MOTOROLA SMALL-SIGNAL TRANSISTOR DATA BOOK,
* DL126, P.2-181
**********
*SRC=MPSW55;MPSW55;BJTs PNP;Amplifier;60V 500mA
.MODEL MPSW55 PNP (IS=59.2F NF=1 BF=154 VAF=139 IKF=.41
+ ISE=10.3P NE=2 BR=4 NR=1 VAR=16 IKR=.615 RE=.143 RB=.572
+ RC=57.2M XTB=1.5 CJE=104P CJC=42.7P TF=1.06N TR=138N)
*   60 Volt  .5 Amp  150 MHz  SiPNP  Transistor  05-16-1991
**********
*SRC=MPSW56;MPSW56;BJTs PNP;Amplifier;80V 500mA
.MODEL MPSW56 PNP (IS=59.2F NF=1 BF=154 VAF=160 IKF=.41
+ ISE=10.3P NE=2 BR=4 NR=1 VAR=16 IKR=.615 RE=.143 RB=.572
+ RC=57.2M XTB=1.5 CJE=104P CJC=42.7P TF=1.06N TR=138N)
*   80 Volt  .5 Amp  150 MHz  SiPNP  Transistor  05-16-1991
**********
*SRC=MPSW92;MPSW92;BJTs PNP;Amplifier;300V 500mA
.MODEL MPSW92 PNP (IS=3.23P NF=1 BF=100 VAF=311 IKF=.25
+ ISE=17.9P NE=2 BR=4 NR=1 VAR=20 IKR=.375 RE=5.63 RB=22.5
+ RC=2.25 XTB=1.5 CJE=88.6P CJC=30.2P TF=1.87N TR=138N)
*   300 Volt  .5 Amp  85 MHz  SiPNP  Transistor  05-16-1991
**********
*SRC=MPSW93;MPSW93;BJTs PNP;Amplifier;300V 500mA
.MODEL MPSW93 PNP (IS=3.23P NF=1 BF=100 VAF=254 IKF=.25
+ ISE=17.9P NE=2 BR=4 NR=1 VAR=20 IKR=.375 RE=5.63 RB=22.5
+ RC=2.25 XTB=1.5 CJE=88.6P CJC=33.5P TF=1.87N TR=138N)
*   200 Volt  .5 Amp  85 MHz  SiPNP  Transistor  05-16-1991
**********
*SRC=2N3249;QN3249;BJTs PNP;Switching;12V 100mA
.MODEL QN3249 PNP (IS=652F NF=1.12 BF=103 VAF=62.3 IKF=80M
+ ISE=22.8P NE=2 BR=4 NR=1 VAR=20 IKR=.12 RE=.882 RB=3.53
+ RC=.353 XTB=1.5 CJE=10.33P CJC=21.8P TF=454P TR=87.5N)
*   12 Volt  .2 Amp  350 MHz  SiPNP  Transistor  05-23-1991
**********
*SRC=2N3250;QN3250;BJTs PNP;Switching;40V 200mA
.MODEL QN3250 PNP (IS=50.80F NF=1.14 BF=102 VAF=113 IKF=43M
+ ISE=6.68P NE=2 BR=4 NR=1 VAR=20 IKR=64.5M RE=1.83 RB=4.32
+ RC=.532 XTB=1.5 CJE=7.52P CJC=11.37P TF=454P TR=85N)
*   40 Volt  .2 Amp  350 MHz  SiPNP  Transistor  05-23-1991
**********
*SRC=2N3250A;QN3250A;BJTs PNP;Switching;60V 200mA
.MODEL QN3250A PNP (IS=50.50F NF=1.14 BF=102 VAF=113 IKF=43M
+ ISE=6.61P NE=2 BR=4 NR=1 VAR=20 IKR=64.5M RE=1.03 RB=5.32
+ RC=.532 XTB=1.5 CJE=7.52P CJC=11.37P TF=454P TR=85N)
*   40 Volt  .2 Amp  350 MHz  SiPNP  Transistor  05-23-1991
**********
*SRC=2N3634;QN3634;BJTs PNP;Switching;12V 100mA
.MODEL QN3634 PNP (IS=14.7F NF=1.15 BF=66.9 VAF=212 IKF=80M
+ ISE=5.28P NE=1.9 BR=4 NR=1 VAR=20 IKR=.12 RE=79M RB=3.12M
+ RC=.712 XTB=1.5 MJE=.331 VJE=.428 CJE=69.7P MJC=.4607 VJC=.9045
+ CJC=33.6P TF=794P TR=195N)
*   140 Volt  1 Amp  200 MHz  SiPNP  Transistor  05-23-1991
**********
*SRC=2N3636;QN3636;BJTs PNP;Switching;175V 1A
.MODEL QN3636 PNP (IS=179F NF=1.13 BF=71.9 VAF=238 IKF=65M
+ ISE=14.8P NE=2 BR=4 NR=1 VAR=20 IKR=97.5M RE=.65 RB=3.63
+ RC=.463 XTB=1.5 MJE=.331 VJE=.428 CJE=69.7P MJC=.4607 VJC=.9045
+ CJC=33.6P TF=794P TR=195N)
*   175 Volt  1 Amp  200 MHz  SiPNP  Transistor  05-23-1991
**********
*SRC=MPS6651;MPS6651;BJTs PNP;Amplifier;25V 1A
.MODEL MPS6651 PNP (IS=182F NF=1.05 BF=187 VAF=90 IKF=1.2
+ ISE=89.9P NE=2 BR=4 NR=1 VAR=16 IKR=1.8 RE=91.5M RB=.366
+ RC=36.6M XTB=1.5 CJE=121P CJC=52P TF=1.27N TR=340N)
*   25 Volt  1 Amp  125 MHz  SiPNP  Transistor  05-27-1991
**********
*SRC=MPS6652;MPS6652;BJTs PNP;Amplifier;25V 1A
.MODEL MPS6652 PNP (IS=182F NF=1.05 BF=187 VAF=113 IKF=1.2
+ ISE=89.9P NE=2 BR=4 NR=1 VAR=16 IKR=1.8 RE=91.5M RB=.366
+ RC=36.6M XTB=1.5 CJE=121P CJC=52P TF=1.27N TR=340N)
*   40 Volt  1 Amp  125 MHz  SiPNP  Transistor  05-27-1991
**********
*SRC=BF470S;BF470S;BJTs PNP;Gen. Purpose;250V .03A
.MODEL BF470S PNP (IS=3.04F NF=1 BF=497 VAF=284 IKF=18M ISE=612F NE=2
+ BR=4 NR=1 VAR=20 IKR=27M RE=1.71 RB=6.87 RC=.687 XTB=1.5
+ CJE=276P VJE=1.1 MJE=.5 CJC=118P VJC=.3 MJC=.3 TF=2.66N TR=1.84U)
*  250 Volt  30M Amp  60 MHz  SiPNP  Transistor  9-3-1991
**********
*SRC=BF472S;BF472S;BJTs PNP;Gen. Purpose;300V .03A
.MODEL BF472S PNP (IS=3.04F NF=1 BF=468 VAF=311 IKF=18M ISE=650F NE=2
+ BR=4 NR=1 VAR=20 IKR=27M RE=1.71 RB=6.87 RC=.687 XTB=1.5
+ CJE=276P VJE=1.1 MJE=.5 CJC=118P VJC=.3 MJC=.3 TF=2.66N TR=1.84U)
*  300 Volt  30M Amp  60 MHz  SiPNP  Transistor  9-3-1991
**********
*SRC=BSR15;BSR15;BJTs PNP;Gen. Purpose;40V .6A
.MODEL BSR15 PNP (IS=60.9F NF=1 BF=260 VAF=113 IKF=.36 ISE=23.4P NE=2
+ BR=4 NR=1 VAR=20 IKR=.54 RE=.877 RB=3.5 RC=.35 XTB=1.5
+ CJE=55.3P VJE=1.1 MJE=.5 CJC=23.1P VJC=.3 MJC=.3 TF=800P TR=136N)
*  Philips 40 Volt  .6 Amp  200 MHz  SiPNP  Transistor  11-27-1991
**********
*SRC=BSR16;BSR16;BJTs PNP;Gen. Purpose;60V .6A
.MODEL BSR16 PNP (IS=60.9F NF=1 BF=260 VAF=139 IKF=.36 ISE=23.4P NE=2
+ BR=4 NR=1 VAR=20 IKR=.54 RE=.877 RB=3.5 RC=.35 XTB=1.5
+ CJE=55.3P VJE=1.1 MJE=.5 CJC=23.1P VJC=.3 MJC=.3 TF=800P TR=136N)
*  Philips 60 Volt  .6 Amp  200 MHz  SiPNP  Transistor  11-27-1991
**********
*SRC=BC556;BC556;BJTs PNP;Gen. Purpose;80V .2A
.MODEL BC556 PNP (IS=20.3F NF=1 BF=123 VAF=161 IKF=.12 ISE=16.4P NE=2
+ BR=4 NR=1 VAR=16 IKR=.18 RE=.257 RB=1.03 RC=.103 XTB=1.5
+ CJE=54.3P VJE=1.1 MJE=.5 CJC=17.5P VJC=.3 MJC=.3 TF=618P TR=429N)
*  80 Volt  .2 Amp  257 MHz  SiPNP  Transistor  11-11-1992
**********
*SRC=2SA673;QSA673;BJTs PNP;Amplifier;35V .5A
.MODEL QSA673 PNP (IS=50.1F NF=1 BF=231 VAF=106 IKF=.5 ISE=95.3P NE=2
+ BR=4 NR=1 VAR=16 IKR=.75 RE=.543 RB=2.17 RC=.217 XTB=1.5
+ CJE=124P VJE=1.1 MJE=.5 CJC=40.2P VJC=.3 MJC=.3 TF=795P TR=552N)
* Hitachi 35 Volt 0.5 Amp  200 MHz Hitachi SiPNP  Transistor  06-24-1993
**********
*SRC=2SA673A;QSA673A;BJTs PNP;Amplifier;50V.5A
.MODEL QSA673A PNP (IS=50.1F NF=1 BF=231 VAF=127 IKF=.5 ISE=95.3P NE=2
+ BR=4 NR=1 VAR=16 IKR=.75 RE=.543 RB=2.17 RC=.217 XTB=1.5
+ CJE=124P VJE=1.1 MJE=.5 CJC=40.2P VJC=.3 MJC=.3 TF=795P TR=552N)
* Hitachi 50 Volt 0.5 Amp  200 MHz Hitachi SiPNP  Transistor  06-24-1993
**********
*SRC=2SA673AB;QSA673AB;BJTs PNP;Amplifier;50V .5A
.MODEL QSA673AB PNP (IS=50.1F NF=1 BF=198 VAF=127 IKF=.5 ISE=111P NE=2
+ BR=4 NR=1 VAR=16 IKR=.75 RE=.543 RB=2.17 RC=.217 XTB=1.5
+ CJE=64.9P VJE=1.1 MJE=.5 CJC=23.6P VJC=.3 MJC=.3 TF=795P TR=552N)
* Hitachi 50 Volt 0.5 Amp  200 MHz SiPNP  Transistor  06-25-1993
**********
*SRC=2SA673AC;QSA673AC;BJTs PNP;Amplifier;50B .5A
.MODEL QSA673AC PNP (IS=50.1F NF=1 BF=330 VAF=127 IKF=.5 ISE=66.7P NE=2
+ BR=4 NR=1 VAR=16 IKR=.75 RE=.543 RB=2.17 RC=.217 XTB=1.5
+ CJE=64.9P VJE=1.1 MJE=.5 CJC=23.6P VJC=.3 MJC=.3 TF=795P TR=552N)
* Hitachi 50 Volt 0.5 Amp  200 MHz SiPNP  Transistor  06-25-1993
**********
*SRC=2SA673AD;QSA673AD;BJTs PNP;Amplifier;50B .5A
.MODEL QSA673AD PNP (IS=50.1F NF=1 BF=528 VAF=127 IKF=.5 ISE=41.7P NE=2
+ BR=4 NR=1 VAR=16 IKR=.75 RE=.543 RB=2.17 RC=.217 XTB=1.5
+ CJE=64.9P VJE=1.1 MJE=.5 CJC=23.6P VJC=.3 MJC=.3 TF=795P TR=552N)
* Hitachi 50 Volt 0.5 Amp  200 MHz SiPNP  Transistor  06-25-1993
**********
*SRC=2SA778K;QSA778K;BJTs PNP;Switching;150V .05A
.MODEL QSA778K PNP (IS=7.85F NF=1 BF=280 VAF=220 IKF=50M ISE=15.3P NE=2
+ BR=4 NR=1 VAR=20 IKR=75M RE=3.76 RB=15 RC=1.5 XTB=1.5
+ CJE=13.8P VJE=1.1 MJE=.5 CJC=12.3P VJC=.3 MJC=.3 TF=3.18N TR=1.7U)
* Hitachi 150 Volt  50M Amp  50 MHz SiPNP  Transistor  06-25-1993
**********
*SRC=2SA778AK;QSA778AK;BJTs PNP;Switching;180V .05A
.MODEL QSA778AK PNP (IS=7.85F NF=1 BF=280 VAF=241 IKF=50M ISE=15.3P NE=2
+ BR=4 NR=1 VAR=20 IKR=75M RE=3.76 RB=15 RC=1.5 XTB=1.5
+ CJE=13.8P VJE=1.1 MJE=.5 CJC=12.3P VJC=.3 MJC=.3 TF=3.18N TR=1.7U)
* Hitachi 180 Volt  50M Amp  50 MHz SiPNP  Transistor  06-25-1993
**********
*SRC=2SA781K;QSA781K;BJTs PNP;Switching;15V .2A
.MODEL QSA781K PNP (IS=7.08E-17 NF=1 BF=77 VAF=69.7 IKF=80M ISE=4.33P NE=2
+ BR=4 NR=1 VAR=16 IKR=.12 RE=3.81 RB=15.2 RC=1.52 XTB=1.5
+ CJE=1.38P VJE=1.1 MJE=.5 CJC=8.21P VJC=.3 MJC=.3 TF=265P TR=170N)
* Hitachi 15 Volt 0.2 Amp  600 MHz SiPNP  Transistor  06-25-1993
**********
*SRC=2SA844C;QSA844C;BJTs PNP;Amplifier;55V .1A
.MODEL QSA844C PNP (IS=5.07F NF=1 BF=258 VAF=133 IKF=40M ISE=939F NE=2
+ BR=4 NR=1 VAR=20 IKR=60M RE=3.15 RB=12.6 RC=1.26 XTB=1.5
+ CJE=17.9P VJE=1.1 MJE=.5 CJC=5.78P VJC=.3 MJC=.3 TF=795P TR=552N)
* Hitachi 55 Volt 0.1 Amp  200 MHz SiPNP  Transistor  06-25-1993
**********
*SRC=2SA844D;QSA844D;BJTs PNP;Amplifier;55V .1A
.MODEL QSA844D PNP (IS=5.07F NF=1 BF=403 VAF=133 IKF=40M ISE=601F NE=2
+ BR=4 NR=1 VAR=20 IKR=60M RE=3.15 RB=12.6 RC=1.26 XTB=1.5
+ CJE=17.9P VJE=1.1 MJE=.5 CJC=5.78P VJC=.3 MJC=.3 TF=795P TR=552N)
* Hitachi 55 Volt 0.1 Amp  200 MHz SiPNP  Transistor  06-25-1993
**********
*SRC=2SA844E;QSA844E;BJTs PNP;Amplifier;55V .1A
.MODEL QSA844E PNP (IS=5.07F NF=1 BF=645 VAF=133 IKF=40M ISE=375F NE=2
+ BR=4 NR=1 VAR=20 IKR=60M RE=3.15 RB=12.6 RC=1.26 XTB=1.5
+ CJE=17.9P VJE=1.1 MJE=.5 CJC=5.78P VJC=.3 MJC=.3 TF=795P TR=552N)
* Hitachi 55 Volt 0.1 Amp  200 MHz SiPNP  Transistor  06-25-1993
**********
*SRC=2SA872D;QSA872D;BJTs PNP;Amplifier;90V .05A
.MODEL QSA872D PNP (IS=11.4F NF=1 BF=380 VAF=170 IKF=20M ISE=285F NE=2
+ BR=4 NR=1 VAR=20 IKR=30M RE=14.6 RB=58.6 RC=5.86 XTB=1.5
+ CJE=21.1P VJE=1.1 MJE=.5 CJC=6.81P VJC=.3 MJC=.3 TF=1.32N TR=921N)
* Hitachi 90 Volt  50M Amp  120 MHz SiPNP  Transistor  06-25-1993
**********
*SRC=2SA872E;QSA872E;BJTs PNP;Amplifier;90V .05A
.MODEL QSA872E PNP (IS=11.4F NF=1 BF=609 VAF=170 IKF=20M ISE=178F NE=2
+ BR=4 NR=1 VAR=20 IKR=30M RE=14.6 RB=58.6 RC=5.86 XTB=1.5
+ CJE=21.1P VJE=1.1 MJE=.5 CJC=6.81P VJC=.3 MJC=.3 TF=1.32N TR=921N)
* Hitachi 90 Volt  50M Amp  120 MHz SiPNP  Transistor  06-25-1993
**********
*SRC=2SA872AD;QSA872AD;BJTs PNP;Amplifier;120V .05A
.MODEL QSA872AD PNP (IS=11.4F NF=1 BF=380 VAF=197 IKF=20M ISE=285F NE=2
+ BR=4 NR=1 VAR=20 IKR=30M RE=14.6 RB=58.6 RC=5.86 XTB=1.5
+ CJE=21.1P VJE=1.1 MJE=.5 CJC=6.81P VJC=.3 MJC=.3 TF=1.32N TR=921N)
* Hitachi 120 Volt  50M Amp  120 MHz SiPNP  Transistor  06-25-1993
**********
*SRC=2SA872AE;QSA872AE;BJTs PNP;Amplifier;120V .05A
.MODEL QSA872AE PNP (IS=11.4F NF=1 BF=609 VAF=197 IKF=20M ISE=178F NE=2
+ BR=4 NR=1 VAR=20 IKR=30M RE=14.6 RB=58.6 RC=5.86 XTB=1.5
+ CJE=21.1P VJE=1.1 MJE=.5 CJC=6.81P VJC=.3 MJC=.3 TF=1.32N TR=921N)
* Hitachi 120 Volt  50M Amp  120 MHz SiPNP  Transistor  06-25-1993
**********
*SRC=2SA893D;QSA893D;BJTs PNP;Amplifier;90V .05A
.MODEL QSA893D PNP (IS=11.4F NF=1 BF=380 VAF=170 IKF=20M ISE=285F NE=2
+ BR=4 NR=1 VAR=20 IKR=30M RE=14.6 RB=58.6 RC=5.86 XTB=1.5
+ CJE=21.1P VJE=1.1 MJE=.5 CJC=6.81P VJC=.3 MJC=.3 TF=1.32N TR=921N)
* Hitachi 90 Volt  50M Amp  120 MHz SiPNP  Transistor  06-25-1993
**********
*SRC=2SA893E;QSA893E;BJTs PNP;Amplifier;90V .05A
.MODEL QSA893E PNP (IS=11.4F NF=1 BF=609 VAF=170 IKF=20M ISE=178F NE=2
+ BR=4 NR=1 VAR=20 IKR=30M RE=14.6 RB=58.6 RC=5.86 XTB=1.5
+ CJE=21.1P VJE=1.1 MJE=.5 CJC=6.81P VJC=.3 MJC=.3 TF=1.32N TR=921N)
* Hitachi 90 Volt  50M Amp  120 MHz SiPNP  Transistor  06-25-1993
**********
*SRC=2SA893AD;QSA893AD;BJTs PNP;Amplifier;120V .05A
.MODEL QSA893AD PNP (IS=11.4F NF=1 BF=380 VAF=197 IKF=20M ISE=285F NE=2
+ BR=4 NR=1 VAR=20 IKR=30M RE=14.6 RB=58.6 RC=5.86 XTB=1.5
+ CJE=21.1P VJE=1.1 MJE=.5 CJC=6.81P VJC=.3 MJC=.3 TF=1.32N TR=921N)
* Hitachi 120 Volt  50M Amp  120 MHz SiPNP  Transistor  06-25-1993
**********
*SRC=2SA893AE;QSA893AE;BJTs PNP;Amplifier;120V .05A
.MODEL QSA893AE PNP (IS=11.4F NF=1 BF=609 VAF=197 IKF=20M ISE=178F NE=2
+ BR=4 NR=1 VAR=20 IKR=30M RE=14.6 RB=58.6 RC=5.86 XTB=1.5
+ CJE=21.1P VJE=1.1 MJE=.5 CJC=6.81P VJC=.3 MJC=.3 TF=1.32N TR=921N)
* Hitachi 120 Volt  50M Amp  120 MHz SiPNP  Transistor  06-25-1993
**********
*SRC=BCY78-7;BCY78_7;BJTs PNP;Amplifier;32V .2A
.MODEL BCY78_7 PNP (IS=10.2F NF=1 BF=180 VAF=101 IKF=.1 ISE=561F NE=2
+ BR=4 NR=1 VAR=20 IKR=.15 RE=1.81 RB=7.26 RC=.726 XTB=1.5
+ CJE=18P VJE=1.1 MJE=.5 CJC=20.2P VJC=.3 MJC=.3 TF=795P TR=425N)
* Philips 32 Volt 0.2 Amp  200 MHz SiPNP  Transistor  06-18-1993
**********
*SRC=BCY79-7;BCY79_7;BJTs PNP;Amplifier;45V .2A
.MODEL BCY79_7 PNP (IS=10.2F NF=1 BF=180 VAF=120 IKF=.1 ISE=561F NE=2
+ BR=4 NR=1 VAR=20 IKR=.15 RE=1.81 RB=7.26 RC=.726 XTB=1.5
+ CJE=18P VJE=1.1 MJE=.5 CJC=20.2P VJC=.3 MJC=.3 TF=795P TR=425N)
* Philips 45 Volt 0.2 Amp  200 MHz SiPNP  Transistor  06-18-1993
**********
*SRC=BCY78-8;BCY78_8;BJTs PNP;Amplifier;32V .2A
.MODEL BCY78_8 PNP (IS=10.2F NF=1 BF=225 VAF=101 IKF=.1 ISE=449F NE=2
+ BR=4 NR=1 VAR=20 IKR=.15 RE=1.81 RB=7.26 RC=.726 XTB=1.5
+ CJE=18P VJE=1.1 MJE=.5 CJC=20.2P VJC=.3 MJC=.3 TF=795P TR=425N)
* Philips 32 Volt 0.2 Amp  200 MHz SiPNP  Transistor  06-18-1993
**********
*SRC=BCY79-8;BCY79_8;BJTs PNP;Amplifier;45V .2A
.MODEL BCY79_8 PNP (IS=10.2F NF=1 BF=225 VAF=120 IKF=.1 ISE=449F NE=2
+ BR=4 NR=1 VAR=20 IKR=.15 RE=1.81 RB=7.26 RC=.726 XTB=1.5
+ CJE=18P VJE=1.1 MJE=.5 CJC=20.2P VJC=.3 MJC=.3 TF=795P TR=425N)
* Philips 45 Volt 0.2 Amp  200 MHz SiPNP  Transistor  06-18-1993
**********
*SRC=BCY78-9;BCY78_9;BJTs PNP;Amplifier;32V .2A
.MODEL BCY78_9 PNP (IS=10.2F NF=1 BF=361 VAF=101 IKF=.1 ISE=280F NE=2
+ BR=4 NR=1 VAR=20 IKR=.15 RE=1.81 RB=7.26 RC=.726 XTB=1.5
+ CJE=18P VJE=1.1 MJE=.5 CJC=20.2P VJC=.3 MJC=.3 TF=795P TR=425N)
* Philips 32 Volt 0.2 Amp  200 MHz SiPNP  Transistor  06-18-1993
**********
*SRC=BCY79-9;BCY79_9;BJTs PNP;Amplifier;45V .2A
.MODEL BCY79_9 PNP (IS=10.2F NF=1 BF=361 VAF=120 IKF=.1 ISE=280F NE=2
+ BR=4 NR=1 VAR=20 IKR=.15 RE=1.81 RB=7.26 RC=.726 XTB=1.5
+ CJE=18P VJE=1.1 MJE=.5 CJC=20.2P VJC=.3 MJC=.3 TF=795P TR=425N)
* Philips 45 Volt 0.2 Amp  200 MHz SiPNP  Transistor  06-18-1993
**********
*SRC=BCY78-10;BCY78_10;BJTs PNP;Amplifier;32V .2A
.MODEL BCY78_10 PNP (IS=10.2F NF=1 BF=502 VAF=101 IKF=70M ISE=202F NE=2
+ BR=4 NR=1 VAR=20 IKR=.105 RE=1.81 RB=7.26 RC=.726 XTB=1.5
+ CJE=18P VJE=1.1 MJE=.5 CJC=20.2P VJC=.3 MJC=.3 TF=795P TR=425N)
* Philips 32 Volt 0.2 Amp  200 MHz SiPNP  Transistor  06-18-1993
**********
*SRC=BSV15-10;BSV15_10;BJTs PNP;Gen. Purpose;40V 1A
.MODEL BSV15_10 PNP (IS=506F NF=1 BF=108 VAF=113 IKF=.5 ISE=47.9P NE=2
+ BR=4 NR=1 VAR=20 IKR=.75 RE=.386 RB=1.54 RC=.154 XTB=1.5
+ CJE=217P VJE=1.1 MJE=.5 CJC=57.8P VJC=.3 MJC=.3 TF=2.12N TR=850N)
* Philips 40 Volt  1 Amp  75 MHz SiPNP  Transistor  06-18-1993
**********
*SRC=BSV16-10;BSV16_10;BJTs PNP;Gen. Purpose;60V 1A
.MODEL BSV16_10 PNP (IS=506F NF=1 BF=108 VAF=139 IKF=.5 ISE=47.9P NE=2
+ BR=4 NR=1 VAR=20 IKR=.75 RE=.386 RB=1.54 RC=.154 XTB=1.5
+ CJE=217P VJE=1.1 MJE=.5 CJC=57.8P VJC=.3 MJC=.3 TF=2.12N TR=850N)
* Philips 60 Volt  1 Amp  75 MHz SiPNP  Transistor  06-18-1993
**********
*SRC=BSV17-10;BSV17_10;BJTs PNP;Gen. Purpose;80V 1A
.MODEL BSV17_10 PNP (IS=506F NF=1 BF=108 VAF=161 IKF=.5 ISE=47.9P NE=2
+ BR=4 NR=1 VAR=20 IKR=.75 RE=.386 RB=1.54 RC=.154 XTB=1.5
+ CJE=217P VJE=1.1 MJE=.5 CJC=43.3P VJC=.3 MJC=.3 TF=2.12N TR=850N)
* Philips 80 Volt  1 Amp  75 MHz SiPNP  Transistor  06-18-1993
**********
*SRC=BSV17-6;BSV17_6;BJTs PNP;Gen. Purpose;80V 1A
.MODEL BSV17_6 PNP (IS=506F NF=1 BF=70 VAF=161 IKF=.5 ISE=74P NE=2
+ BR=4 NR=1 VAR=20 IKR=.75 RE=.386 RB=1.54 RC=.154 XTB=1.5
+ CJE=217P VJE=1.1 MJE=.5 CJC=43.3P VJC=.3 MJC=.3 TF=2.12N TR=850N)
* Philips 80 Volt  1 Amp  75 MHz SiPNP  Transistor  06-18-1993
**********
*SRC=BSV16-6;BSV16_6;BJTs PNP;Gen. Purpose;60V 1A
.MODEL BSV16_6 PNP (IS=506F NF=1 BF=70 VAF=139 IKF=.5 ISE=74P NE=2
+ BR=4 NR=1 VAR=20 IKR=.75 RE=.386 RB=1.54 RC=.154 XTB=1.5
+ CJE=217P VJE=1.1 MJE=.5 CJC=57.8P VJC=.3 MJC=.3 TF=2.12N TR=850N)
* Philips 60 Volt  1 Amp  75 MHz SiPNP  Transistor  06-18-1993
**********
*SRC=BSV15-6;BSV15_6;BJTs PNP;Gen. Purpose;40V 1A
.MODEL BSV15_6 PNP (IS=506F NF=1 BF=70 VAF=113 IKF=.5 ISE=74P NE=2
+ BR=4 NR=1 VAR=20 IKR=.75 RE=.386 RB=1.54 RC=.154 XTB=1.5
+ CJE=217P VJE=1.1 MJE=.5 CJC=57.8P VJC=.3 MJC=.3 TF=2.12N TR=850N)
* Philips 40 Volt  1 Amp  75 MHz SiPNP  Transistor  06-18-1993
**********
*SRC=BSV15-16;BSV15_16;BJTs PNP;Gen. Purpose;40V 1A
.MODEL BSV15_16 PNP (IS=506F NF=1 BF=173 VAF=113 IKF=.3 ISE=30.4P NE=2
+ BR=4 NR=1 VAR=20 IKR=.45 RE=.386 RB=1.54 RC=.154 XTB=1.5
+ CJE=217P VJE=1.1 MJE=.5 CJC=57.8P VJC=.3 MJC=.3 TF=2.12N TR=850N)
* Philips 40 Volt  1 Amp  75 MHz SiPNP  Transistor  06-18-1993
**********
*SRC=BSV16-16;BSV16_16;BJTs PNP;Gen. Purpose;60V 1A
.MODEL BSV16_16 PNP (IS=506F NF=1 BF=173 VAF=139 IKF=.3 ISE=30.4P NE=2
+ BR=4 NR=1 VAR=20 IKR=.45 RE=.386 RB=1.54 RC=.154 XTB=1.5
+ CJE=217P VJE=1.1 MJE=.5 CJC=57.8P VJC=.3 MJC=.3 TF=2.12N TR=850N)
* Philips 60 Volt  1 Amp  75 MHz SiPNP  Transistor  06-18-1993
**********
*SRC=BSV17-16;BSV17_16;BJTs PNP;Gen. Purpose;80V 1A
.MODEL BSV17_16 PNP (IS=506F NF=1 BF=173 VAF=161 IKF=.3 ISE=30.4P NE=2
+ BR=4 NR=1 VAR=20 IKR=.45 RE=.386 RB=1.54 RC=.154 XTB=1.5
+ CJE=217P VJE=1.1 MJE=.5 CJC=43.3P VJC=.3 MJC=.3 TF=2.12N TR=850N)