**********
Intusoft - Philips (Signetics) SPICE Modeling Series 
ABT/MB SPICE Models
10 July 1992
Revision: 0792

Source: Intusoft P.O. Box 710 San Pedro, Ca. 90733-0710
        Phone: (310) 833-0710 FAX: (310) 833-9658

*  Getting More Information About SPICE Models  *

For technical information describing the models and application 
notes on how to use the models, please see the Intusoft MAY 1993
Newsletter.

INTUSOFT hereby grants the users of these macromodels a
non-exclusive, nontransferrable license to use this macromodel under
the following conditions:
 
 This model is provided as is.  INTUSOFT makes no warranty, either
 expressed or implied about the suitability or fitness of this model
 for any particular purpose.  In no event will INTUSOFT be liable for
 special, collateral, incidental or consequential damages in
 connection with or arising out of the use of this macromodel.  It
 should be remembered that models are a simplification of the actual
 circuit.
 
 INTUSOFT reserves the right to change these macromodels without
 prior notice.

**********
*                                  *
*  Signetics SPICE Modeling Series *
*                                  *
*  IsSpice Models                  *
*                                  *
*  Nominal Case(s)                 *
*                                  *
*  Revision: 0792                  *
*                                  *
**********
.MODEL MHS4XNEN NMOS
+ LEVEL=3 TOX=20E-9 UO=436.3 VTO=.64 NFS=1.09E12 NSUB=5.512E16
+ VMAX=150100 RSH=240 XJ=0.20E-6 LD=0.0 DELTA=0.0 THETA=2.45E-2
+ ETA=.125 KAPPA=20E-18 PB=.802 CJ=5.99E-4 MJ=.31 CJSW=1.03E-10
+ MJSW=0.2 CGDO=3.19E-10 CGSO=3.19E-10
*
**********
.MODEL MHS4XPEN PMOS
+ LEVEL=3 TOX=20E-9 UO=144.6 VTO=-0.75 NFS=1E11 NSUB=5.504E16
+ VMAX=152100 RSH=1000 XJ=0.225E-6 LD=0.166E-6 DELTA=.155
+ THETA=6.24E-2 ETA=.071 KAPPA=20E-18 PB=.470 CJ=3.68E-4
+ MJ=.213 CJSW=1.76E-10 MJSW=.33 CGDO=3.40E-10 CGSO=3.40E-10
*
**********
.MODEL CA08CBSN NPN
+  IS=1.01E-17    BF=1.27E+02    VAF=2.38E+01   IKF=7.21E-02
+  BR=4.45E-01    VAR=2.67E+00   IKR=1.32E-03   RB=1.59E+02    IRB=5.67E-05
+  RBM=4.75E+01   RE=3.20E+00    RC=1.22E+02    XTB=1.50E+00   EG=1.23E+00
+  XTI=2.14E+00   CJE=3.66E-14   VJE=9.83E-01   MJE=4.53E-01   TF=4.37E-12
+  CJC=2.83E-14   VJC=8.08E-01   MJC=4.02E-01   TR=3.88E-09    CJS=5.32E-14
+  VJS=7.09E-01   MJS=3.87E-01
*
**********
.SUBCKT CB0ACBSN 1 2 3 4
QN 1 2 3 4 MTRN
DSCH 2 1 MSCH
.MODEL MTRN NPN
+  IS=  1.27E-17  BF=  1.27E+02  VAF= 2.38E+01  IKF= 9.01E-03
+  BR=  4.49E-01  VAR= 2.67E+00  IKR= 1.65E-03  RB=  1.27E+02  IRB= 7.08E-05 
+  RBM= 3.8E+01   RE=  2.56E+00  RC=  9.77E+01  XTB= 1.50E+00  EG=  1.23E+00 
+  XTI= 2.14E+00  CJE= 4.57E-14  VJE= 9.83E-01  MJE= 4.53E-01  TF=  4.37E-12 
+  CJC= 3.51E-14  VJC= 8.08E-01  MJC= 4.02E-01  TR=  3.85E-09  CJS= 6.14E-14 
+  VJS= 7.09E-01  MJS= 3.87E-01 
.MODEL MSCH D
+  IS=4.28E-13    RS=2.96E+01    N=1.04E+00     CJO=1.55E-14   VJ=7.86E-01
+  M=5.00E-01     EG=8.00E-01    XTI=4.00E+00
.ENDS CB0ACBSN
*
**********
.MODEL DA03CBSN NPN 
+  IS=  6.20E-18  BF=  1.06E+02  VAF= 2.38E+01  IKF= 9.84E-03 
+  BR=  2.87E+00  VAR= 3.80E+00  IKR= 9.60E-04  RB=  5.30E+02  IRB= 9.25E-05
+  RBM= 3.6E+01   RE=  4.27E+00  RC=  1.31E+02  XTB= 1.50E+00  EG=  1.23E+00 
+  XTI= 2.14E+00  CJE= 3.45E-14  VJE= 9.85E-01  MJE= 4.42E-01  TF=  6.49E-12 
+  CJC= 1.50E-14  VJC= 8.36E-01  MJC= 3.98E-01  TR=  9.43E-10  CJS= 2.71E-14 
+  VJS= 7.12E-01  MJS= 3.81E-01 
*
**********
.MODEL DA04CBSN NPN 
+  IS=  8.27E-18  BF=  1.06E+02  VAF= 2.38E+01  IKF= 1.31E-02 
+  BR=  2.92E+00  VAR= 3.80E+00  IKR= 1.28E-03  RB=  3.97E+02  IRB= 1.23E-04 
+  RBM= 2.7E+01   RE=  3.2E+00   RC=  9.86E+01  XTB= 1.50E+00  EG=  1.23E+00 
+  XTI= 2.14E+00  CJE= 3.45E-14  VJE= 9.85E-01  MJE= 4.42E-01  TF=  6.49E-12 
+  CJC= 1.97E-14  VJC= 8.36E-01  MJC= 3.98E-01  TR=  9.29E-10  CJS= 3.07E-14 
+  VJS= 7.12E-01  MJS= 3.81E-01 
*
**********
.SUBCKT DB04CBSN 1 2 3 4
QN 1 2 3 4 MTRN
DSCH 2 1 MSCH
.MODEL MTRN NPN 
+  IS=  8.27E-18  BF=  1.06E+02  VAF= 2.38E+01  IKF= 1.31E-02 
+  BR=  2.92E+00  VAR= 3.80E+00  IKR= 1.28E-03  RB=  3.97E+02  IRB= 1.23E-04 
+  RBM= 2.7E+01   RE=  3.2E+00   RC=  9.86E+01  XTB= 1.50E+00  EG=  1.23E+00 
+  XTI= 2.14E+00  CJE= 3.45E-14  VJE= 9.85E-01  MJE= 4.42E-01  TF=  6.49E-12 
+  CJC= 1.97E-14  VJC= 8.36E-01  MJC= 3.98E-01  TR=  9.29E-10  CJS= 3.07E-14 
+  VJS= 7.12E-01  MJS= 3.81E-01 
.MODEL MSCH D
+  IS=3.42E-13    RS=0.00E+00    N=1.04E+00     CJO=1.24E-14   VJ=7.86E-01
+  M=5.00E-01     EG=8.00E-01    XTI=4.00E+00
.ENDS DB04CBSN
*
**********
.MODEL DA06CBSN NPN
+  IS=1.24E-17    BF=1.06E+02    VAF=2.38E+01   IKF=1.96E-02
+  BR=2.97E+00    VAR=3.80E+00   IKR=1.92E-03   RB=2.65E+02    IRB=1.85E-04
+  RBM=1.80E+01   RE=2.13E+00    RC=6.57E+01    XTB=1.50E+00   EG=1.23E+00
+  XTI=2.14E+00   CJE=5.12E-14   VJE=9.85E-01   MJE=4.42E-01   TF=6.49E-12
+  CJC=2.91E-14   VJC=8.36E-01   MJC=3.98E-01   TR=9.14E-10    CJS=3.79E-14
+  VJS=7.12E-01   MJS=3.81E-01
*
**********
.MODEL DA0ACASN NPN 
+  IS=  2.06E-17  BF=  1.06E+02  VAF= 2.38E+01  IKF= 1.92E-02 
+  BR=  3.35E+00  VAR= 3.80E+00  IKR= 1.72E-03  RB=  6.14E+02  IRB= 1.8E-04 
+  RBM= 2.16E+01  RE=  1.28E+00  RC=  3.66E+01  XTB= 1.50E+00  EG=  1.23E+00 
+  XTI= 2.14E+00  CJE= 8.46E-14  VJE= 9.85E-01  MJE= 4.42E-01  TF=  6.49E-12 
+  CJC= 4.37E-14  VJC= 8.36E-01  MJC= 3.98E-01  TR=  8.22E-10  CJS= 4.95E-14 
+  VJS= 7.12E-01  MJS= 3.81E-01 
*
**********
.MODEL DA0ACBSN NPN 
+  IS=  2.06E-17  BF=  1.06E+02  VAF= 2.38E+01  IKF= 3.28E-02 
+  BR=  3.01E+00  VAR= 3.80E+00  IKR= 3.20E-03  RB=  1.59E+02  IRB= 3.08E-04 
+  RBM= 1.08E+01  RE=  1.28E+00  RC=  3.94E+01  XTB= 1.50E+00  EG=  1.23E+00 
+  XTI= 2.14E+00  CJE= 8.46E-14  VJE= 9.85E-01  MJE= 4.42E-01  TF=  6.49E-12 
+  CJC= 4.80E-14  VJC= 8.36E-01  MJC= 3.98E-01  TR=  9.03E-10  CJS= 5.22E-14 
+  VJS= 7.12E-01  MJS= 3.81E-01 
*
**********
.MODEL DA02AASN NPN 
+  IS=  1.72E-18  BF=  1.06E+02  VAF= 2.38E+01  IKF= 1.46E-03
+  BR=  1.82E+00  VAR= 3.80E+00  IKR= 3.11E-04  RB=  1.34E+03  IRB= 1.38E-05 
+  RBM= 1.08E+02  RE=  1.53E+01  RC=  2.82E+02  XTB= 1.50E+00  EG=  1.23E+00 
+  XTI= 2.14E+00  CJE= 7.96E-15  VJE= 9.85E-01  MJE= 4.42E-01  TF=  6.49E-12 
+  CJC= 6.45E-15  VJC= 8.36E-01  MJC= 3.98E-01  TR=  1.45E-09  CJS= 2.08E-14 
+  VJS= 7.12E-01  MJS= 3.81E-01 
*
**********
.MODEL DA04CASN NPN 
+  IS=  8.27E-18  BF=  1.06E+02  VAF= 2.38E+01  IKF= 7.69E-03 
+  BR=  3.27E+00  VAR= 3.80E+00  IKR= 6.90E-04  RB=  1.53E+03  IRB= 7.23E-05 
+  RBM= 5.40E+01  RE=  3.20E+00  RC=  9.17E+01  XTB= 1.50E+00  EG=  1.23E+00 
+  XTI= 2.14E+00  CJE= 3.45E-14  VJE= 9.85E-01  MJE= 4.42E-01  TF=  6.49E-12 
+  CJC= 1.79E-14  VJC= 8.36E-01  MJC= 3.98E-01  TR=  8.42E-10  CJS= 2.88E-14 
+  VJS= 7.12E-01  MJS= 3.81E-01 
*
**********
.MODEL DA06CASN NPN 
+  IS=  1.24E-17  BF=  1.06E+02  VAF= 2.38E+01  IKF= 1.15E-02 
+  BR=  3.31E+00  VAR= 3.80E+00  IKR= 1.03E-03  RB=  1.02E+03  IRB= 1.08E-04 
+  RBM= 3.60E+01  RE=  2.13E+00  RC=  6.11E+01  XTB= 1.50E+00  EG=  1.23E+00 
+  XTI= 2.14E+00  CJE= 5.12E-14  VJE= 9.85E-01  MJE= 4.42E-01  TF=  6.49E-12 
+  CJC= 2.65E-14  VJC= 8.36E-01  MJC= 3.98E-01  TR=  8.31E-10  CJS= 3.57E-14 
+  VJS= 7.12E-01  MJS= 3.81E-01 
*
**********
.MODEL DA28CBDN NPN 
+  IS=  8.27E-17  BF=  1.06E+02  VAF= 2.38E+01  IKF= 1.31E-01 
+  BR=  3.05E+00  VAR= 3.80E+00  IKR= 1.28E-02  RB=  3.97E+01  IRB= 1.23E-03
+  RBM= 2.70E+01  RE=  3.20E-01  RC=  6.98E+00  XTB= 1.50E+00  EG=  1.23E+00 
+  XTI= 2.14E+00  CJE= 9.80E-14  VJE= 9.85E-01  MJE= 4.42E-01  TF=  6.49E-12 
+  CJC= 1.89E-13  VJC= 8.36E-01  MJC= 3.98E-01  TR=  8.90E-10  CJS= 2.03E-13 
+  VJS= 7.12E-01  MJS= 3.81E-01 
*
**********
.MODEL DA3CCASN NPN 
+  IS=  1.24E-16  BF=  1.06E+02  VAF= 2.38E+01  IKF= 1.15E-01 
+  BR=  3.40E+00  VAR= 3.80E+00  IKR= 1.03E-02  RB=  1.02E+02  IRB= 1.08E-03
+  RBM= 3.60E+00  RE=  2.13E-01  RC=  6.11E+00  XTB= 1.50E+00  EG=  1.23E+00 
+  XTI= 2.14E+00  CJE= 5.02E-13  VJE= 9.85E-01  MJE= 4.42E-01  TF=  6.49E-12 
+  CJC= 2.58E-13  VJC= 8.36E-01  MJC= 3.98E-01  TR=  8.11E-10  CJS= 2.21E-13 
+  VJS= 7.12E-01  MJS= 3.81E-01 
*
**********
.MODEL EA1XXXXN NPN 
+  IS= 1.06E-16  BF= 1.06E+02  VAF= 2.38E+01  IKF= 1.26E-01 
+  BR= 3.62E+00  VAR= 3.80E+00  IKR= 1.17E-02  RB= 6.56E+01  IRB= 1.19E-03 
+  RBM= 3.09E+00  RE= 2.48E-01  RC= 1.12E+01  XTB= 1.50E+00  EG= 1.23E+00 
+  XTI= 2.14E+00  CJE= 4.18E-13  VJE= 9.85E-01  MJE= 4.42E-01  TF= 6.49E-12 
+  CJC= 2.08E-13  VJC= 8.36E-01  MJC= 3.98E-01  TR= 7.58E-10  CJS= 1.45E-13 
+  VJS= 7.12E-01  MJS= 3.81E-01 
*
**********
.MODEL EA2XXXXN NPN 
+  IS= 1.92E-17  BF= 1.06E+02  VAF= 2.38E+01  IKF= 1.40E-02 
+  BR= 3.22E+00  VAR= 3.80E+00  IKR= 1.23E-03  RB= 1.15E+03  IRB= 1.32E-04 
+  RBM= 3.09E+01  RE= 1.37E+00  RC= 9.88E+01  XTB= 1.50E+00  EG= 1.23E+00 
+  XTI= 2.14E+00  CJE= 7.47E-14  VJE= 9.85E-01  MJE= 4.42E-01  TF= 6.49E-12 
+  CJC= 4.18E-14  VJC= 8.36E-01  MJC= 3.98E-01  TR= 8.43E-10  CJS= 2.21E-14 
+  VJS= 7.12E-01  MJS= 3.81E-01 
*
**********
.MODEL CA03CASN  NPN  IS= 7.23E-18  BF= 1.06E+02  VAF= 2.38E+01  IKF= 5.91E-03
+  BR= 2.77E+00  VAR= 3.80E+00  IKR= 5.23E-04  RB= 2.37E+03  IRB= 5.56E-05
+  RBM= 7.21E+01 RE= 3.66E+00  RC= 1.25E+02  XTB= 1.50E+00  EG= 1.23E+00
+  XTI= 2.14E+00 CJE= 3.02E-14  VJE= 9.85E-01  MJE= 4.42E-01  TF= 6.49E-12
+  CJC= 1.81E-14 VJC= 8.36E-01  MJC= 3.98E-01  TR= 9.73E-10  CJS= 3.54E-14
+  VJS= 7.12E-01 MJS= 3.81E-01
*
**********
.MODEL CA0ACASN NPN 
+  IS=  2.41E-17  BF=  1.06E+02  VAF= 2.38E+01  IKF= 1.97E-02 
+  BR=  3.00E+00  VAR= 3.80E+00  IKR= 1.74E-03  RB=  7.13E+02  IRB= 1.85E-04 
+  RBM= 2.16E+01  RE=  1.09E+00  RC=  3.82E+01  XTB= 1.50E+00  EG=  1.23E+00 
+  XTI= 2.14E+00  CJE= 9.80E-14  VJE= 9.85E-01  MJE= 4.42E-01  TF=  6.49E-12 
+  CJC= 5.57E-14  VJC= 8.36E-01  MJC= 3.98E-01  TR=  8.98E-10  CJS= 6.26E-14 
+  VJS= 7.12E-01  MJS= 3.81E-01 
*
**********
.SUBCKT DB05CASN 1 2 3 4
QN 1 2 3 4 MTRN
DSCH 2 1 MSCH
.MODEL MTRN NPN
+  IS= 1.03E-17   BF= 1.06E+02   VAF= 2.38E+01  IKF= 9.61E-03
+  BR= 3.29E+00   VAR= 3.80E+00  IKR= 8.62E-04  RB= 1.22E+03   IRB= 9.04E-05
+  RBM= 4.32E+01  RE= 2.56E+00   RC= 7.33E+01   XTB= 1.50E+00  EG= 1.23E+00
+  XTI= 2.14E+00  CJE= 4.28E-14  VJE= 9.85E-01  MJE= 4.42E-01  TF= 6.49E-12
+  CJC= 2.22E-14  VJC= 8.36E-01  MJC= 3.98E-01  TR= 8.35E-10   CJS= 3.23E-14
+  VJS= 7.12E-01  MJS= 3.81E-01
.MODEL MSCH D
+  IS=2.14E-13    RS=0.00E+00    N=1.04E+00     CJO=7.78E-15   VJ=7.86E-01
+  M=5.00E-01     EG=8.00E-01    XTI=4.00E+00
.ENDS DB05CASN
*
**********
.SUBCKT DB06CASN 1 2 3 4
QN 1 2 3 4 MTRN
DSCH 2 1 MSCH
.MODEL MTRN NPN
+  IS= 1.24E-17   BF= 1.06E+02   VAF= 2.38E+01  IKF= 1.15E-02
+  BR= 3.31E+00   VAR= 3.80E+00  IKR= 1.03E-03  RB= 1.02E+03   IRB= 1.08E-04
+  RBM= 3.60E+01  RE= 2.13E+00   RC= 6.11E+01   XTB= 1.50E+00  EG= 1.23E+00
+  XTI= 2.14E+00  CJE= 6.79E-14  VJE= 9.85E-01  MJE= 4.42E-01  TF= 6.49E-12
+  CJC= 2.65E-14  VJC= 8.36E-01  MJC= 3.98E-01  TR= 8.31E-10   CJS= 3.57E-14
+  VJS= 7.12E-01  MJS= 3.81E-01
.MODEL MSCH D
+  IS=2.57E-13    RS=0.00E+00    N=1.04E+00     CJO=9.34E-14   VJ=7.86E-01
+  M=5.00E-01     EG=8.00E-01    XTI=4.00E+00
.ENDS DB06CASN
*
**********
.SUBCKT DB08CBSN 1 2 3 4
QN 1 2 3 4 MTRN
DSCH 2 1 MSCH
.MODEL MTRN NPN
+  IS= 1.65E-17   BF= 1.06E+02   VAF= 2.38E+01  IKF= 2.62E-02
+  BR= 2.53E+00   VAR= 3.80E+00  IKR= 2.56E-03  RB= 1.98E+02   IRB= 2.46E-04
+  RBM= 1.35E+01  RE= 1.60E+00   RC= 4.93E+01   XTB= 1.50E+00  EG= 1.23E+00
+  XTI= 2.14E+00  CJE= 6.79E-14  VJE= 9.85E-01  MJE= 4.42E-01  TF= 6.49E-12
+  CJC= 4.48E-14  VJC= 8.36E-01  MJC= 3.98E-01  TR= 1.05E-09   CJS= 5.85E-14
+  VJS= 7.12E-01  MJS= 3.81E-01
.MODEL MSCH D
+  IS=3.42E-13    RS=0.00E+00    N=1.04E+00     CJO=1.24E-14   VJ=7.86E-01
+  M=5.00E-01     EG=8.00E-01    XTI=4.00E+00
.ENDS DB08CBSN
*
**********
.SUBCKT DB0ACBSN 1 2 3 4
QN 1 2 3 4 MTRN
DSCH 2 1 MSCH
.MODEL MTRN NPN
+  IS=2.06E-17    BF=1.06E+02    VAF=2.38E+01   IKF=3.28E-02
+  BR=2.55E+00    VAR=3.80E+00   IKR=3.20E-03   RB=1.59E+02    IRB=3.08E-04
+  RBM=1.08E+01   RE=1.28E+00    RC=3.94E+01    XTB=1.50E+00   EG=1.23E+00
+  XTI=2.14E+00   CJE=8.46E-14   VJE=9.85E-01   MJE=4.42E-01   TF=6.49E-12
+  CJC=5.57E-14   VJC=8.36E-01   MJC=3.98E-01   TR=1.04E-09    CJS=6.69E-14
+  VJS=7.12E-01   MJS=3.81E-01
.MODEL MSCH D
+  IS=4.28E-13    RS=0.00E+00    N=1.04E+00     CJO=1.55E-14   VJ=7.86E-01
+  M=5.00E-01     EG=8.00E-01    XTI=4.00E+00
.ENDS DB0ACBSN
*
**********
.SUBCKT DB283ADN 1 2 3 4
QN 1 2 3 4 MTRN
DSCH 2 1 MSCH
.MODEL MTRN NPN
+  IS=1.78E-16    BF=1.10E+02    VAF=2.72E+01   IKF=1.33E-01
+  BR=1.74E+00    VAR=3.42E+00   IKR=8.01E-03   RB=8.17E+01    IRB=1.21E-03
+  RBM=2.96E+00   RE=1.60E+01    RC=5.36E+00    XTB=1.50E+00   EG=1.23E+00
+  XTI=2.14E+00   CJE=7.04E-13   VJE=9.86E-01   MJE=4.42E-01   TF=5.33E-12
+  CJC=2.54E-13   VJC=8.21E-01   MJC=3.62E-01   TR=1.56E-09    CJS=2.80E-13
+  VJS=7.12E-01   MJS=3.91E-01
.MODEL MSCH D
+  IS=4.57E-13    RS=0.00E+00    N=1.04E+00     CJO=1.66E-14   VJ=7.86E-01
+  M=5.00E-01     EG=8.00E-01    XTI=4.00E+00
.ENDS DB283ADN
*
**********
.MODEL DC1E3ASN NPN
+  IS=8.91E-17    BF=1.06E+02    VAF=2.38E+01   IKF=6.78E-02
+  BR=3.26E+00    VAR=3.80E+00   IKR=5.96E-03   RB=2.27E+02    IRB=6.38E-04
+  RBM=6.36E+00   RE=2.97E-01    RC=8.90E+00    XTB=1.50E+00   EG=1.23E+00
+  XTI=2.14E+00   CJE=3.60E-13   VJE=9.85E-01   MJE=4.42E-01   TF=6.49E-12
+  CJC=1.90E-13   VJC=8.36E-01   MJC=3.98E-01   TR=8.31E-10    CJS=1.90E-13
+  VJS=7.12E-01   MJS=3.81E-01
*
**********
.SUBCKT DD3CCASN 1 2 3 4 
QN   1 2 3 4 MTRN 
DSCH   2 1 MSCH 
.MODEL MTRN  NPN 
+  IS=  1.21E-16  BF=  1.06E+02  VAF= 2.38E+01  IKF= 1.08E-01 
+  BR=  3.15E+00  VAR= 3.80E+00  IKR= 9.69E-03  RB=  1.14E+02  IRB= 1.01E-03 
+  RBM= 3.86E+00  RE=  2.19E-01  RC=  6.76E+00  XTB= 1.50E+00  EG=  1.23E+00 
+  XTI= 2.14E+00  CJE= 4.89E-13  VJE= 9.85E-01  MJE= 4.42E-01  TF=  6.49E-12 
+  CJC= 2.66E-13  VJC= 8.36E-01  MJC= 3.98E-01  TR=  8.56E-10  CJS= 3.21E-13 
+  VJS= 7.12E-01  MJS= 3.81E-01 
.MODEL MSCH D 
+  (IS= 5.71E-13  RS=0.0       N=   1.04E+00  CJO= 2.07E-14  VJ= 7.86E-01 
+    M= 5.00E-01  EG= 8.00E-01 XTI= 4.00E+00) 
.ENDS DD3CCASN 
*
**********
.SUBCKT DDF0CASN 1 2 3 4 
QN   1 2 3 4 MTRN 
DSCH   2 1 MSCH 
.MODEL MTRN  NPN 
+  IS=  4.84E-16  BF=  1.06E+02  VAF= 2.38E+01  IKF= 4.34E-01 
+  BR=  3.15E+00  VAR= 3.80E+00  IKR= 3.87E-02  RB=  2.86E+01  IRB= 4.08E-03 
+  RBM= 9.66E-01  RE=  5.47E-02  RC=  1.69E+00  XTB= 1.50E+00  EG=  1.23E+00 
+  XTI= 2.14E+00  CJE= 1.95E-12  VJE= 9.85E-01  MJE= 4.42E-01  TF=  6.49E-12 
+  CJC= 1.06E-12  VJC= 8.36E-01  MJC= 3.98E-01  TR=  8.54E-10  CJS= 1.28E-12 
+  VJS= 7.12E-01  MJS= 3.81E-01 
.MODEL MSCH D 
+  (IS= 3.42E-12  RS=0.0       N= 1.04E+00  CJO= 1.24E-13  VJ= 7.86E-01 
+    M= 5.00E-01  EG= 8.00E-01 XTI= 4.00E+00) 
.ENDS DDF0CASN 
*
**********
.MODEL DA08CBSN  NPN  IS= 1.65E-17  BF= 1.06E+02  VAF= 2.38E+01  IKF= 2.62E-02
+  BR= 3.00E+00  VAR= 3.80E+00  IKR= 2.56E-03  RB= 1.98E+02  IRB= 2.46E-04
+  RBM= 1.35E+01  RE= 1.60E+00  RC= 4.93E+01  XTB= 1.50E+00  EG= 1.23E+00
+  XTI= 2.14E+00  CJE= 6.79E-14  VJE= 9.85E-01  MJE= 4.42E-01  TF= 6.49E-12
+  CJC= 3.86E-14  VJC= 8.36E-01  MJC= 3.98E-01  TR= 9.07E-10  CJS= 4.50E-14
+  VJS= 7.12E-01  MJS= 3.81E-01
*
**********
.MODEL DA6ECBDN  NPN IS= 2.27E-16 BF= 1.06E+02 VAF= 2.38E+01 IKF= 3.60E-01
+  BR= 3.07E+00  VAR= 3.80E+00  IKR= 3.52E-02  RB= 1.44E+01  IRB= 3.39E-03
+  RBM= 9.83E-01  RE= 1.16E-01  RC= 2.54E+00  XTB= 1.50E+00  EG= 1.23E+00
+  XTI= 2.14E+00  CJE= 9.20E-13  VJE= 9.85E-01  MJE= 4.42E-01  TF= 6.49E-12
+  CJC= 5.19E-13  VJC= 8.36E-01  MJC= 3.98E-01  TR= 8.87E-10  CJS= 5.20E-13
+  VJS= 7.12E-01  MJS= 3.81E-01
*
**********
.MODEL DA14CASN  NPN  IS= 4.13E-17  BF= 1.06E+02  VAF= 2.38E+01  IKF= 3.84E-02
+  BR= 3.38E+00  VAR= 3.80E+00  IKR= 3.44E-03  RB= 3.07E+02  IRB= 3.61E-04
+  RBM= 1.08E+01  RE= 6.41E-01  RC= 1.83E+01  XTB= 1.50E+00  EG= 1.23E+00
+  XTI= 2.14E+00  CJE= 1.68E-13  VJE= 9.85E-01  MJE= 4.42E-01  TF= 6.49E-12
+  CJC= 8.67E-14  VJC= 8.36E-01  MJC= 3.98E-01  TR= 8.15E-10  CJS= 8.39E-14
+  VJS= 7.12E-01  MJS= 3.81E-01
*
**********
.SUBCKT DB14CASN  1 2 3 4
QN   1 2 3 4 MTRN
DSCH   2 1 MSCH
.MODEL  MTRN  NPN  IS= 4.13E-17  BF= 1.06E+02  VAF= 2.38E+01  IKF= 3.84E-02
+  BR= 3.38E+00  VAR= 3.80E+00  IKR= 3.44E-03  RB= 3.07E+02  IRB= 3.61E-04
+  RBM= 1.08E+01  RE= 6.41E-01  RC= 1.83E+01  XTB= 1.50E+00  EG= 1.23E+00
+  XTI= 2.14E+00  CJE= 1.68E-13  VJE= 9.85E-01  MJE= 4.42E-01  TF= 6.49E-12
+  CJC= 8.67E-14  VJC= 8.36E-01  MJC= 3.98E-01  TR= 8.15E-10  CJS= 8.39E-14
+  VJS= 7.12E-01  MJS= 3.81E-01
.MODEL MSCH D(IS= 8.57E-13  RS=0.0  N= 1.04E+00  CJO= 3.11E-14  VJ= 7.86E-01
+      M= 5.00E-01  EG= 8.00E-01  XTI= 4.00E+00)
.ENDS DB14CASN
*
**********
.SUBCKT DB293ADN 1 2 3 4
QN 1 2 3 4 MTRN
DSCH 2 1 MSCH
.MODEL  MTRN  NPN  IS= 8.79E-17  BF= 106  VAF= 23.8  IKF= 0.0841
+  BR= 3.58  VAR= 3.80  IKR= 7.57E-03  RB= 135  IRB= 7.90E-04
+  RBM= 4.91  RE= 0.301  RC= 7.83  XTB=1.5  EG= 1.23
+  XTI= 2.14  CJE= 3.58E-13  VJE=0.985  MJE= 0.442  TF= 6.49E-12
+  CJC= 1.72E-13  VJC= 0.836  MJC= 3.98E-01  TR= 7.64E-10  CJS= 1.85E-13
+  VJS= 7.12E-01  MJS= 3.81E-01
.MODEL MSCH D(IS= 6.42E-13  RS=0.0  N= 1.04E+00  CJO= 2.33E-14  VJ= 7.86E-01
+      M= 5.00E-01  EG= 8.00E-01  XTI= 4.00E+00)
.ENDS DB293ADN
*
**********
.MODEL  DA06BBSN  NPN  
+  IS= 5.17E-18   BF= 1.06E+02   VAF= 2.38E+01  IKF= 1.39E-02
+  BR= 1.56E+00   VAR= 3.80E+00  IKR= 1.59E-03  RB= 1.20E+02   IRB= 1.31E-04
+  RBM= 1.80E+01  RE= 1.51E+01   RC= 1.06E+02   XTB= 1.50E+00  EG= 1.23E+00
+  XTI= 2.14E+00  CJE= 2.29E-14  VJE= 9.85E-01  MJE= 4.42E-01  TF= 6.49E-12
+  CJC= 2.18E-14  VJC= 8.36E-01  MJC= 3.98E-01  TR= 1.63E-09   CJS= 4.11E-14
+  VJS= 7.12E-01  MJS= 3.81E-01
*
**********
.MODEL  DA02ABSN  NPN
+  IS= 1.72E-18   BF= 1.06E+02   VAF= 2.38E+01  IKF= 4.64E-03
+  BR= 1.53E+00   VAR= 3.80E+00  IKR= 5.33E-04  RB= 3.62E+02   IRB= 4.37E-05
+  RBM= 5.40E+01  RE= 1.53E+01   RC= 3.16E+02   XTB= 1.50E+00  EG= 1.23E+00
+  XTI= 2.14E+00  CJE= 7.96E-15  VJE= 9.85E-01  MJE= 4.42E-01  TF= 6.49E-12
+  CJC= 7.47E-15  VJC= 8.36E-01  MJC= 3.98E-01  TR= 1.68E-09   CJS= 2.20E-14
+  VJS= 7.12E-01  MJS= 3.81E-01
*
**********
.SUBCKT DB000ACN  1 2 3
DDIO 1 2 MDIO
DSUB 3 2 MSUB; OFF
.MODEL MDIO D
+  IS= 1.42E-13  RS= 7.08E+01  N= 1.04E+00  CJO= 5.19E-15 VJ= 7.86E-01
+  M= 5.00E-01  EG= 8.00E-01  XTI= 4.00E+0
.MODEL MSUB D(CJO= 1.72E-14  VJ= 7.12E-01  M= 3.81E-01)
.ENDS DB000ACN
*
**********
.MODEL  DA0ABASN  NPN
+  IS= 8.61E-18   BF= 1.06E+02   VAF= 2.38E+01  IKF= 1.54E-02
+  BR= 2.46E+00   VAR= 3.80E+00  IKR= 1.55E-03  RB= 2.68E+02   IRB= 1.45E-04
+  RBM= 2.16E+01  RE= 2.30E+01   RC= 5.96E+01   XTB= 1.50E+00  EG= 1.23E+00
+  XTI= 2.14E+00  CJE= 3.79E-14  VJE= 9.85E-01  MJE= 4.42E-01  TF= 6.49E-12
+  CJC= 2.38E-14  VJC= 8.36E-01  MJC= 3.98E-01  TR= 1.07E-09   CJS= 4.40E-14
+  VJS= 7.12E-01  MJS= 3.81E-01
*
**********
.MODEL DA08CBDN  NPN  IS= 1.65E-17  BF= 1.06E+02  VAF= 2.38E+01  IKF= 2.62E-02
+  BR= 2.98E+00  VAR= 3.80E+00  IKR= 2.56E-03  RB= 1.98E+02  IRB= 2.46E-04
+  RBM= 1.35E+01  RE= 1.60E+00  RC= 3.49E+01  XTB= 1.50E+00  EG= 1.23E+00
+  XTI= 2.14E+00  CJE= 6.79E-14  VJE= 9.85E-01  MJE= 4.42E-01  TF= 6.49E-12
+  CJC= 3.87E-14  VJC= 8.36E-01  MJC= 3.98E-01  TR= 9.11E-10  CJS= 5.97E-14
+  VJS= 7.12E-01  MJS= 3.81E-01
*
**********
.SUBCKT DB3C3ADN  1 2 3 4
QN   1 2 3 4 MTRN
DSCH   2 1 MSCH
.MODEL  MTRN  NPN  IS= 2.48E-16  BF=  1.06E+02  VAF= 2.38E+01  IKF= 2.30E-01
+  BR=  2.74E+00  VAR= 3.80E+00  IKR= 2.06E-02  RB=  5.12E+01  IRB= 2.16E-03
+  RBM= 1.80E+00  RE=  1.06E-01  RC=  3.05E+00  XTB= 1.50E+00  EG=  1.23E+00
+  XTI= 2.14E+00  CJE= 1.00E-12  VJE= 9.85E-01  MJE= 4.42E-01  TF=  6.49E-12
+  CJC= 6.26E-13  VJC= 8.36E-01  MJC= 3.98E-01  TR=  9.81E-10  CJS= 4.04E-13
+  VJS= 7.12E-01  MJS= 3.81E-01
.MODEL MSCH D(IS= 3.42E-12  RS=0.0  N= 1.04E+00  CJO= 1.24E-13  VJ= 7.86E-01
+      M= 5.00E-01  EG= 8.00E-01  XTI= 4.00E+00)
.ENDS DB3C3ADN
*
**********
.SUBCKT DB0305AN  1 2 3 
DDIO 1 2 MDIO 
DSUB 3 2 MSUB; OFF 
.MODEL MDIO D 
+  (IS= 2.14E-13  RS= 6.12E+01  N=   1.04E+00  CJO= 7.78E-15  VJ= 7.86E-01 
+   M=  5.00E-01  EG= 8.00E-01  XTI= 4.00E+00) 
.MODEL MSUB D 
+  (CJO= 2.46E-14  VJ= 7.12E-01  M= 3.81E-01) 
.ENDS DB0305AN
*
**********
.SUBCKT DB0308AN 1 2 3
DDIO 1 2 MDIO
DSUB 3 2 MSUB; OFF
.MODEL MDIO D
+  IS=3.42E-13    RS=3.82E+01    N=1.04E+00     CJO=1.24E-14   VJ=7.86E-01
+  M=5.00E-01     EG=8.00E-01    XTI=4.00E+00
.MODEL MSUB D
+   CJO=3.35E-14   VJ=7.12E-01    M=3.81E-01
.ENDS DB0308AN
*
**********
.SUBCKT DB0314AN  1 2 3 
DDIO 1 2 MDIO 
DSUB 3 2 MSUB; OFF 
.MODEL MDIO D 
+  (IS= 8.57E-13  RS= 1.53E+01  N=   1.04E+00  CJO=3.11E-14  VJ= 7.86E-01 
+   M=  5.00E-01  EG= 8.00E-01  XTI= 4.00E+00) 
.MODEL MSUB D 
+  (CJO= 6.91E-14  VJ= 7.12E-01  M= 3.81E-01) 
.ENDS DB0314AN
*
**********
.SUBCKT DB030CAN  1 2 3 
DDIO 1 2 MDIO 
DSUB 3 2 MSUB; OFF 
.MODEL MDIO D 
+  (IS= 5.14E-13  RS= 2.82E+01  N=   1.04E+00  CJO= 1.86E-14  VJ= 7.86E-01 
+   M=  5.00E-01  EG= 8.00E-01  XTI= 4.00E+00) 
.MODEL MSUB D
+ (CJO= 4.54E-14  VJ= 7.12E-01  M= 3.81E-01) 
.ENDS DB030CAN  
*
**********
.SUBCKT DB0408AN  1 2 3 
DDIO 1 2 MDIO 
DSUB 3 2 MSUB; OFF 
.MODEL MDIO D 
+  (IS= 4.57E-13  RS= 3.41E+01  N=   1.04E+00  CJO= 1.66E-14  VJ= 7.86E-01 
+   M=  5.00E-01  EG= 8.00E-01  XTI= 4.00E+00) 
.MODEL MSUB D 
+  (CJO= 3.60E-14  VJ= 7.12E-01  M= 3.81E-01) 
.ENDS DB0408AN
*
**********
.SUBCKT DB055AGN  1 2 3 
DDIO 1 2 MDIO 
DSUB 3 2 MSUB; OFF 
.MODEL MDIO D 
+  (IS= 6.42E-12  RS=2.81E+00  N=   1.04E+00  CJO= 2.33E-13  VJ= 7.86E-01 
+   M=  5.00E-01  EG= 8.00E-01  XTI= 4.00E+00) 
.MODEL MSUB D 
+  (CJO= 3.13E-13  VJ= 7.12E-01  M= 3.81E-01) 
.ENDS DB055AGN
*
**********
.SUBCKT DB060AAN  1 2 3 
DDIO 1 2 MDIO 
DSUB 3 2 MSUB; OFF 
.MODEL MDIO D 
+  (IS= 8.57E-13  RS= 2.26E+01  N=   1.04E+00  CJO= 3.11E-14  VJ= 7.86E-01 
+   M=  5.00E-01  EG= 8.00E-01  XTI= 4.00E+00) 
.MODEL MSUB D 
+  (CJO= 3.77E-14  VJ= 7.12E-01  M= 3.81E-01) 
.ENDS DB060AAN
*
**********
.SUBCKT DB0814AN 1 2 3
DDIO 1 2 MDIO
DSUB 3 2 MSUB; OFF
.MODEL MDIO D
+  IS=2.28E-12    RS=1.12E+01    N=1.04E+00     CJO=8.30E-14   VJ=7.86E-01
+  M=5.00E-01     EG=8.00E-01    XTI=4.00E+00
.MODEL MSUB D
+  CJO=9.30E-14   VJ=7.12E-01    M=3.81E-01
.ENDS DB0814AN
*
**********
.SUBCKT DB0A50AN  1 2 3 
DDIO 1 2 MDIO 
DSUB 3 2 MSUB; OFF 
.MODEL MDIO D 
+  (IS= 1.14E-11  RS=2.67E+00  N=   1.04E+00  CJO= 4.15E-13  VJ= 7.86E-01 
+   M=  5.00E-01  EG= 8.00E-01  XTI= 4.00E+00) 
.MODEL MSUB D 
+  (CJO= 3.61E-13  VJ= 7.12E-01  M= 3.81E-01) 
.ENDS DB0A50AN  
*
**********
.SUBCKT DB0D25CN  1 2 3 
DDIO 1 2 MDIO 
DSUB 3 2 MSUB; OFF 
.MODEL MDIO D 
+  (IS= 3.99E-11  RS= 1.93E-01  N=   1.04E+00  CJO= 1.45E-12  VJ= 7.86E-01 
+   M=  5.00E-01  EG= 8.00E-01  XTI= 4.00E+00) 
.MODEL MSUB D 
+  (CJO= 2.99E-12  VJ= 7.12E-01  M= 3.81E-01) 
.ENDS DB0D25CN  
*
**********
.SUBCKT CB0506AN  1 2 3 
DDIO 1 2 MDIO 
DSUB 3 2 MSUB; OFF 
.MODEL MDIO D 
+  (IS= 4.28E-13  RS= 4.69E+01  N=   1.04E+00  CJO= 1.55E-14  VJ= 7.86E-01 
+   M=  5.00E-01  EG= 8.00E-01  XTI= 4.00E+00) 
.MODEL MSUB D 
+  (CJO= 3.27E-14  VJ= 7.12E-01  M= 3.81E-01) 
.ENDS CB0506AN 
*
**********
.SUBCKT CB0508AN  1 2 3 
DDIO 1 2 MDIO 
DSUB 3 2 MSUB; OFF 
.MODEL MDIO D 
+  (IS= 5.71E-13  RS= 4.36E+01  N=   1.04E+00  CJO= 2.07E-14  VJ= 7.86E-01 
+   M=  5.00E-01  EG= 8.00E-01  XTI= 4.00E+00) 
.MODEL MSUB D 
+  (CJO= 3.93E-14  VJ= 7.12E-01  M= 3.81E-01) 
.ENDS CB0508AN 
*
**********
.SUBCKT CB3004AN  1 2 3 
DDIO 1 2 MDIO 
DSUB 3 2 MSUB; OFF 
.MODEL MDIO D 
+  (IS= 2.68E-12  RS= 5.53E+00  N= 1.04E+00  CJO= 9.75E-14  VJ= 7.86E-01 
+   M=  5.00E-01  EG= 8.00E-01  XTI= 4.00E+00) 
.MODEL MSUB D 
+  (CJO= 2.05E-13  VJ= 7.12E-01  M= 3.81E-01) 
.ENDS CB3004AN 
*
**********
.SUBCKT CB1804AN  1 2 3
DDIO 1 2 MDIO
DSUB 3 2 MSUB; OFF
.MODEL MDIO D(IS= 1.37E-12  RS= 1.09E+01  N= 1.04E+00  CJO= 4.98E-14  
+      VJ= 7.86E-01
+      M= 5.00E-01  EG= 8.00E-01  XTI= 4.00E+00)
.MODEL MSUB D(CJO= 1.02E-13  VJ= 7.12E-01  M= 3.81E-01)
.ENDS CB1804AN
*
**********
.SUBCKT DB3002AN 1 2 3
DDIO 1 2 MDIO
DSUB 3 2 MSUB; OFF
.MODEL MDIO D(IS= 1.37E-12 RS=7.38E+00 N=1.04E+00 CJO=4.98E-14 VJ=7.86E-01
+     M=5.00E-01 EG=8.00E-01 XTI=4.00E+00)
.MODEL MSUB D(CJO=1.17E-13 VJ=7.12E-01 M=3.81E-01)
.ENDS DB3002AN
*
**********
.SUBCKT DB001ECN 1 2 3
DDIO 1 2 MDIO
DSUB 3 2 MSUB; OFF
.MODEL MDIO D(IS=4.28E-13 RS=5.69E+01 N=1.04E+00 CJO=1.13E-14 VJ=7.86E-01
+     M=5.00E-01 EG=8.00E-01 XTI=4.00E+00)
.MODEL MSUB D(CJO=4.63E-14 VJ=7.12E-01 M=3.91E-01)
.ENDS DB001ECN
*
**********
.SUBCKT DB030AAN 1 2 3
DDIO 1 2 MDIO
DSUB 3 2 MSUB; OFF
.MODEL MDIO D(IS=4.28E-13 RS=2.96E+01 N=1.04E+00 CJO=1.55E-14 VJ=7.86E-01
+              M=5.00E-01 EG=8.00E-01 XTI=4.00E+00)
.MODEL MSUB D(CJO=3.77E-14 VJ=7.12E-01 M=3.81E-01)
.ENDS DB030AAN
*
**********
.SUBCKT DB0A14AN  1 2 3
DDIO 1 2 MDIO
DSUB 3 2 MSUB; OFF
.MODEL MDIO D(IS= 2.85E-12  RS= 1.07E+01 N= 1.04E+00 CJO= 1.03E-13 VJ= 7.86E-01
+      M= 5.00E-01  EG= 8.00E-01  XTI= 4.00E+00)
.MODEL MSUB D(CJO= 1.02E-13  VJ= 7.12E-01  M= 3.81E-01)
.ENDS DB0A14AN
*
**********
.SUBCKT DB0A1EAN  1 2 3
DDIO 1 2 MDIO
DSUB 3 2 MSUB; OFF
.MODEL MDIO D(IS= 4.28E-12  RS= 7.14E+00 N= 1.04E+00 CJO= 1.55E-13 VJ= 7.86E-01
+      M= 5.00E-01  EG= 8.00E-01  XTI= 4.00E+00)
.MODEL MSUB D(CJO= 1.45E-13  VJ= 7.12E-01  M= 3.81E-01)
.ENDS DB0A1EAN
*
**********
.SUBCKT DB0960CN  1 2 3
DDIO 1 2 MDIO
DSUB 3 2 MSUB; OFF
.MODEL MDIO D(IS= 3.42E-11  RS= 2.24E-01 N= 1.04E+00 CJO= 1.24E-12  VJ= 7.86E-01
+      M= 5.00E-01  EG= 8.00E-01  XTI= 4.00E+00)
.MODEL MSUB D(CJO= 2.57E-12  VJ= 7.12E-01  M= 3.81E-01)
.ENDS DB0960CN
*
**********
.SUBCKT DB0695CN 1 2 3
DDIO 1 2 MDIO
DSUB 3 2 MSUB; OFF
.MODEL MDIO D(IS=2.40E-11 RS=3.28E-01 N=1.04E+00 CJO=8.74E-13 VJ=7.86E-01
+              M=5.00E-01 EG=8.00E-01 XTI=4.00E+00)
.MODEL MSUB D(CJO=1.51E-12 VJ=7.12E-01 M=3.81E-01)
.ENDS DB0695CN
*
**********
.SUBCKT DB0206AN 1 2 3
DDIO 1 2 MDIO
DSUB 3 2 MSUB; OFF
.MODEL MDIO D
+     IS= 1.72E-13 RS=5.75E+01 N=1.04E+00 CJO=6.22E-15 VJ=7.86E-01
+     M=5.00E-01 EG=8.00E-01 XTI=4.00E+00
.MODEL MSUB D
+     CJO=2.56E-14 VJ=7.12E-01 M=3.81E-01
.ENDS DB0206AN
*
**********
.SUBCKT DB320DBN 1 2 3
DDIO 1 2 MDIO
DSUB 3 2 MSUB; OFF
.MODEL MDIO D
+  IS=1.88E-12    RS=4.08E+00    N=1.04E+00     CJO=6.85E-14   VJ=7.86E-01
+  M=5.00E-01     EG=8.00E-01    XTI=4.00E+00
.MODEL MSUB D
+  CJO=1.85E-13   VJ=7.12E-01    M=3.81E-01
.ENDS DB320DBN
*
**********
.SUBCKT DB01800N 1 2 3 {RES=30 REB=1.0}
R1 1 4 {RES*REB/2} RMOD
R2 4 2 {RES*REB/2} RMOD
C1 1 0 {(.088 * (RES*REB*0.7455+1) * 24 + 2.28 * (RES*REB*0.7455+25))*0.1E-15}
C2 4 0 {(.088 * (RES*REB*0.7455+1) * 24 + 2.28 * (RES*REB*0.7455+25))*0.8E-15}
C3 2 0 {(.088 * (RES*REB*0.7455+1) * 24 + 2.28 * (RES*REB*0.7455+25))*0.1E-15}
R3 4 0 1G
.MODEL RMOD R TC1=1.27E-3
.ENDS DB01800N
*
**********
.SUBCKT DB01900N 1 2 3 {RES=30 REB=1.0}
R1 1 4 {RES*REB/2} RMOD
R2 4 2 {RES*REB/2} RMOD
C1 1 0 {(.088 * (RES*REB*0.7758+1) * 25 + 2.28 * (RES*REB*0.7758+26))*0.1E-15}
C2 4 0 {(.088 * (RES*REB*0.7758+1) * 25 + 2.28 * (RES*REB*0.7758+26))*0.8E-15}
C3 2 0 {(.088 * (RES*REB*0.7758+1) * 25 + 2.28 * (RES*REB*0.7758+26))*0.1E-15}
R3 4 0 1G
.MODEL RMOD R TC1=1.27E-3
.ENDS DB01900N
*
**********
.SUBCKT DB01E00N 1 2 3 {RES=30 REB=1.0}
R1 1 4 {RES*REB/2} RMOD 
R2 4 2 {RES*REB/2} RMOD
C1 1 0 {(.088 * (RES*REB*0.9273+1) * 30 + 2.28 * (RES*REB*0.9273+31))*0.1E-15}
C2 4 0 {(.088 * (RES*REB*0.9273+1) * 30 + 2.28 * (RES*REB*0.9273+31))*0.8E-15}
C3 2 0 {(.088 * (RES*REB*0.9273+1) * 30 + 2.28 * (RES*REB*0.9273+31))*0.1E-15}
R3 4 0 1G
.MODEL RMOD R TC1=1.27E-3
.ENDS DB01E00N
*
**********
.SUBCKT DB02800N 1 2 3 {RES=30 REB=1.0}
R1 1 4 {RES*REB/2} RMOD
R2 4 2 {RES*REB/2} RMOD
C1 1 0 {(.088 * (RES*REB*1.2303+1) * 40 + 2.28 * (RES*REB*1.2303+41))*0.1E-15}
C2 4 0 {(.088 * (RES*REB*1.2303+1) * 40 + 2.28 * (RES*REB*1.2303+41))*0.8E-15}
C3 2 0 {(.088 * (RES*REB*1.2303+1) * 40 + 2.28 * (RES*REB*1.2303+41))*0.1E-15}
R3 4 0 1G
.MODEL RMOD R TC1=1.27E-3
.ENDS DB02800N
*
**********
.MODEL RPX R TC1=-0.835E-3 TC2=5.09E-6
*
**********
.SUBCKT DC00200N 1 2 3 {RES=1K REX=1.0}
R1 1 4 RPX {RES*REX/2}
R2 4 2 RPX {RES*REX/2}
C1 1 0 {(.045 * (RES*REX*0.002+7.68) * 4)*0.1E-15}
C2 4 0 {(.045 * (RES*REX*0.002+7.68) * 4)*0.8E-15}
C3 2 0 {(.045 * (RES*REX*0.002+7.68) * 4)*0.1E-15}
R3 4 0 1G
.MODEL RPX R TC1=-0.835E-3 TC2=5.09E-6
.ENDS DC00200N
*
**********
.SUBCKT DC00300N 1 2 3 {RES=1K REX=1.0}
R1 1 4 RPX {RES*REX/2}
R2 4 2 RPX {RES*REX/2}
C1 1 0 {(.045 * (RES*REX*0.003+7.68) * 5)*0.1E-15}
C2 4 0 {(.045 * (RES*REX*0.003+7.68) * 5)*0.8E-15}
C3 2 0 {(.045 * (RES*REX*0.003+7.68) * 5)*0.1E-15}
R3 4 0 1G
.MODEL RPX R TC1=-0.835E-3 TC2=5.09E-6
.ENDS DC00300N
*
**********
.SUBCKT DC00400N 1 2 3 {RES=1K REX=1.0}
R1 1 4 RPX {RES*REX/2}
R2 4 2 RPX {RES*REX/2}
C1 1 0 {(.045 * (RES*REX*0.004+7.68) * 6)*0.1E-15}
C2 4 0 {(.045 * (RES*REX*0.004+7.68) * 6)*0.8E-15}
C3 2 0 {(.045 * (RES*REX*0.004+7.68) * 6)*0.1E-15}
R3 4 0 1G
.MODEL RPX R TC1=-0.835E-3 TC2=5.09E-6
.ENDS DC00400N
*
**********
.SUBCKT DC00500N 1 2 3 {RES=1K REX=1.0}
R1 1 4 RPX {RES*REX/2}
R2 4 2 RPX {RES*REX/2}
C1 1 0 {(.045 * (RES*REX*0.005+7.68) * 7)*0.1E-15}
C2 4 0 {(.045 * (RES*REX*0.005+7.68) * 7)*0.8E-15}
C3 2 0 {(.045 * (RES*REX*0.005+7.68) * 7)*0.1E-15}
R3 4 0 1G
.MODEL RPX R TC1=-0.835E-3 TC2=5.09E-6
.ENDS DC00500N
*
**********
.SUBCKT DC00600N 1 2 3 {RES=1K REX=1.0}
R1 1 4 RPX {RES*REX/2}
R2 4 2 RPX {RES*REX/2}
C1 1 0 {(.045 * (RES*REX*0.006+7.68) * 8)*0.1E-15}
C2 4 0 {(.045 * (RES*REX*0.006+7.68) * 8)*0.8E-15}
C3 2 0 {(.045 * (RES*REX*0.006+7.68) * 8)*0.1E-15}
R3 4 0 1G
.MODEL RPX R TC1=-0.835E-3 TC2=5.09E-6
.ENDS DC00600N
*
**********
.SUBCKT DC00700N 1 2 3 {RES=1K REX=1.0}
R1 1 4 RPX {RES*REX/2}
R2 4 2 RPX {RES*REX/2}
C1 1 0 {(.045 * (RES*REX*0.007+7.68) * 9)*0.1E-15}
C2 4 0 {(.045 * (RES*REX*0.007+7.68) * 9)*0.8E-15}
C3 2 0 {(.045 * (RES*REX*0.007+7.68) * 9)*0.1E-15}
R3 4 0 1G
.MODEL RPX R TC1=-0.835E-3 TC2=5.09E-6
.ENDS DC00700N
*
**********
.SUBCKT DC00800N 1 2 3 {RES=1K REX=1.0}
R1 1 4 RPX {RES*REX/2}
R2 4 2 RPX {RES*REX/2}
C1 1 0 {(.045 * (RES*REX*0.008+7.68) * 10)*0.1E-15}
C2 4 0 {(.045 * (RES*REX*0.008+7.68) * 10)*0.8E-15}
C3 2 0 {(.045 * (RES*REX*0.008+7.68) * 10)*0.1E-15}
R3 4 0 1G
.MODEL RPX R TC1=-0.835E-3 TC2=5.09E-6
.ENDS DC00800N
*
**********