**********
*SRC=AD704;AD704;Opamps;AD-"ADxxx";Bipolar Input, 100pA Bias Cur.
*SYM=ADOPAMP
* AD704 SPICE Macro-model 9/91, Rev. B
* AAG / PMI
*
* Revision History:
* REV B
* Updated op amp architecture implemented.
*
* Node assignments
*             non-inverting input
*             | inverting input
*             | |  positive supply
*             | |  |  negative supply
*             | |  |  |  output
*             | |  |  |  |
.SUBCKT AD704 1 2 99 50 28
*
* INPUT STAGE & POLE AT 3 MHz
*
IOS 1 2 DC 15E-12
CIN 1 2 2E-12
R1 2 3 3.3157E8
R2 1 3 3.3157E8
EOS 9 1 POLY(1) 16 22 30E-6 1
D1 2 9 DX
D2 9 2 DX
Q1 5 2 10 QX
Q2 6 9 11 QX
R3 99 5 530.51
R4 99 6 530.51
C2 5 6 50E-12
R5 10 4 13.314
R6 11 4 13.314
I1 4 50 100E-6
*
* GAIN STAGE & DOMINANT POLE AT 0.45 HZ
*
EREF 98 0 22 0 1
G1 98 12 5 6 1.885E-3
R7 12 98 530.51E6
C3 12 98 666.67E-12
V1 99 13 DC 1.3375
D3 12 13 DX
V2 14 50 DC 1.3375
D4 14 12 DX
*
* COMMON-MODE GAIN NETWORK WITH ZERO AT 500 HZ
*
ECM 15 98 3 22 251.19E-3
RCM1 15 16 1E6
CCM 15 16 318.31E-12
RCM2 16 98 1
*
* ZERO-POLE PAIR AT 165 kHz / 430 kHz
*
GZP1 98 17 12 22 1E-6
RZP1 17 18 1E6
RZP2 18 98 1.6061E6
LZP 18 98 594.45E-3
*
* NEGATIVE ZERO AT -3 MHz
*
ENZ 19 98 17 22 1E6
RNZ1 19 20 -1
CNZ 19 20 53.052E-9
RNZ2 20 98 -1E-6
*
* POLE AT 10 MHz
*
G2 98 21 20 22 1E-6
R10 21 98 1E6
C5 21 98 15.915E-15
*
* OUTPUT STAGE
*
IDC 99 50 DC 260E-6
RDC1 99 22 1E6
RDC2 22 50 1E6
DO1 99 23 DX
GO1 23 50 27 21 2E-3
DO2 50 23 DY
DO3 99 24 DX
GO2 24 50 21 27 2E-3 
DO4 50 24 DY
VSC1 25 27 3.15
DSC1 21 25 DX
VSC2 27 26 3.15
DSC2 26 21 DX
GO3 27 99 99 21 2E-3 
GO4 50 27 21 50 2E-3 
RO1 99 27 500
RO2 27 50 500
LO 27 28 265E-9
*
* MODELS USED
*
.MODEL QX NPN(BF=6.25E5)
.MODEL DX D(IS=1E-15)
.MODEL DY D(IS=1E-15 BV=50)
.ENDS
**********
*SRC=AD704A;AD704A;Opamps;AD-"ADxxx";Bipolar Input, 100pA Bias Cur.
*SYM=ADOPAMP
* AD704A SPICE Macro-model 9/91, Rev. B
* AAG / PMI
*
* This version of the AD704 model simulates the worst case 
* parameters of the 'A' grade.  The worst case parameters
* used correspond to those in the data sheet.
*
* Revision History:
* REV B
* Updated op amp architecture implemented.
*
* Node assignments
*              non-inverting input
*              | inverting input
*              | |  positive supply
*              | |  |  negative supply
*              | |  |  |  output
*              | |  |  |  |
.SUBCKT AD704A 1 2 99 50 28
*
* INPUT STAGE & POLE AT 3 MHz
*
IOS 1 2 DC 125E-12
CIN 1 2 2E-12
R1 2 3 9.8243E7
R2 1 3 9.8243E7
EOS 9 1 POLY(1) 16 22 150E-6 1
D1 2 9 DX
D2 9 2 DX
Q1 5 2 10 QX
Q2 6 9 11 QX
R3 99 5 530.51
R4 99 6 530.51
C2 5 6 50E-12
R5 10 4 13.314
R6 11 4 13.314
I1 4 50 100E-6
*
* GAIN STAGE & DOMINANT POLE AT 2.25 HZ
*
EREF 98 0 22 0 1
G1 98 12 5 6 1.885E-3
R7 12 98 106.1E6
C3 12 98 666.67E-12
V1 99 13 DC 2.3625
D3 12 13 DX
V2 14 50 DC 2.3625
D4 14 12 DX
*
* COMMON-MODE GAIN NETWORK WITH ZERO AT 20 kHZ
*
ECM 15 98 3 22 10
RCM1 15 16 1E6
CCM 15 16 7.9577E-12
RCM2 16 98 1
*
* ZERO-POLE PAIR AT 165 kHz / 430 kHz
*
GZP1 98 17 12 22 1E-6
RZP1 17 18 1E6
RZP2 18 98 1.6061E6
LZP 18 98 594.45E-3
*
* NEGATIVE ZERO AT -3 MHz
*
ENZ 19 98 17 22 1E6
RNZ1 19 20 -1
CNZ 19 20 53.052E-9
RNZ2 20 98 -1E-6
*
* POLE AT 10 MHz
*
G2 98 21 20 22 1E-6
R10 21 98 1E6
C5 21 98 15.915E-15
*
* OUTPUT STAGE
*
IDC 99 50 DC 485E-6
RDC1 99 22 1E6
RDC2 22 50 1E6
DO1 99 23 DX
GO1 23 50 27 21 2E-3
DO2 50 23 DY
DO3 99 24 DX
GO2 24 50 21 27 2E-3 
DO4 50 24 DY
VSC1 25 27 3.15
DSC1 21 25 DX
VSC2 27 26 3.15
DSC2 26 21 DX
GO3 27 99 99 21 2E-3 
GO4 50 27 21 50 2E-3 
RO1 99 27 500
RO2 27 50 500
LO 27 28 265E-9
*
* MODELS USED
*
.MODEL QX NPN(BF=1.8519E5)
.MODEL DX D(IS=1E-15)
.MODEL DY D(IS=1E-15 BV=50)
.ENDS
**********
*SRC=AD704B;AD704B;Opamps;AD-"ADxxx";Bipolar Input, 100pA Bias Cur.
*SYM=ADOPAMP
* AD704B SPICE Macro-model 9/91, Rev. B
* AAG / PMI
*
* This version of the AD704 model simulates the worst case 
* parameters of the 'B' grade.  The worst case parameters
* used correspond to those in the data sheet.
*
* Revision History:
* REV B
* Updated op amp architecture implemented.
*
* Node assignments
*              non-inverting input
*              | inverting input
*              | |  positive supply
*              | |  |  negative supply
*              | |  |  |  output
*              | |  |  |  |
.SUBCKT AD704B 1 2 99 50 28
*
* INPUT STAGE & POLE AT 3 MHz
*
IOS 1 2 DC 50E-12
CIN 1 2 2E-12
R1 2 3 1.7684E8
R2 1 3 1.7684E8
EOS 9 1 POLY(1) 16 22 75E-6 1
D1 2 9 DX
D2 9 2 DX
Q1 5 2 10 QX
Q2 6 9 11 QX
R3 99 5 530.51
R4 99 6 530.51
C2 5 6 50E-12
R5 10 4 13.314
R6 11 4 13.314
I1 4 50 100E-6
*
* GAIN STAGE & DOMINANT POLE AT 1.5 HZ
*
EREF 98 0 22 0 1
G1 98 12 5 6 1.885E-3
R7 12 98 159.15E6
C3 12 98 666.67E-12
V1 99 13 DC 2.3625
D3 12 13 DX
V2 14 50 DC 2.3625
D4 14 12 DX
*
* COMMON-MODE GAIN NETWORK WITH ZERO AT 4 kHZ
*
ECM 15 98 3 22 1.9953
RCM1 15 16 1E6
CCM 15 16 39.883E-12
RCM2 16 98 1
*
* ZERO-POLE PAIR AT 165 kHz / 430 kHz
*
GZP1 98 17 12 22 1E-6
RZP1 17 18 1E6
RZP2 18 98 1.6061E6
LZP 18 98 594.45E-3
*
* NEGATIVE ZERO AT -3 MHz
*
ENZ 19 98 17 22 1E6
RNZ1 19 20 -1
CNZ 19 20 53.052E-9
RNZ2 20 98 -1E-6
*
* POLE AT 10 MHz
*
G2 98 21 20 22 1E-6
R10 21 98 1E6
C5 21 98 15.915E-15
*
* OUTPUT STAGE
*
IDC 99 50 DC 485E-6
RDC1 99 22 1E6
RDC2 22 50 1E6
DO1 99 23 DX
GO1 23 50 27 21 2E-3
DO2 50 23 DY
DO3 99 24 DX
GO2 24 50 21 27 2E-3 
DO4 50 24 DY
VSC1 25 27 3.15
DSC1 21 25 DX
VSC2 27 26 3.15
DSC2 26 21 DX
GO3 27 99 99 21 2E-3 
GO4 50 27 21 50 2E-3 
RO1 99 27 500
RO2 27 50 500
LO 27 28 265E-9
*
* MODELS USED
*
.MODEL QX NPN(BF=3.3333E5)
.MODEL DX D(IS=1E-15)
.MODEL DY D(IS=1E-15 BV=50)
.ENDS
**********
*SRC=AD704J;AD704J;Opamps;AD-"ADxxx";Bipolar Input, 100pA Bias Cur.
*SYM=ADOPAMP
* AD704J SPICE Macro-model 9/91, Rev. B
* AAG / PMI
*
* This version of the AD704 model simulates the worst case 
* parameters of the 'J' grade.  The worst case parameters
* used correspond to those in the data sheet.
*
* Revision History:
* REV B
* Updated op amp architecture implemented.
*
* Node assignments
*              non-inverting input
*              | inverting input
*              | |  positive supply
*              | |  |  negative supply
*              | |  |  |  output
*              | |  |  |  |
.SUBCKT AD704J 1 2 99 50 28
*
* INPUT STAGE & POLE AT 3 MHz
*
IOS 1 2 DC 125E-12
CIN 1 2 2E-12
R1 2 3 9.8243E7
R2 1 3 9.8243E7
EOS 9 1 POLY(1) 16 22 150E-6 1
D1 2 9 DX
D2 9 2 DX
Q1 5 2 10 QX
Q2 6 9 11 QX
R3 99 5 530.51
R4 99 6 530.51
C2 5 6 50E-12
R5 10 4 13.314
R6 11 4 13.314
I1 4 50 100E-6
*
* GAIN STAGE & DOMINANT POLE AT 2.25 HZ
*
EREF 98 0 22 0 1
G1 98 12 5 6 1.885E-3
R7 12 98 106.1E6
C3 12 98 666.67E-12
V1 99 13 DC 2.3625
D3 12 13 DX
V2 14 50 DC 2.3625
D4 14 12 DX
*
* COMMON-MODE GAIN NETWORK WITH ZERO AT 20 kHZ
*
ECM 15 98 3 22 10
RCM1 15 16 1E6
CCM 15 16 7.9577E-12
RCM2 16 98 1
*
* ZERO-POLE PAIR AT 165 kHz / 430 kHz
*
GZP1 98 17 12 22 1E-6
RZP1 17 18 1E6
RZP2 18 98 1.6061E6
LZP 18 98 594.45E-3
*
* NEGATIVE ZERO AT -3 MHz
*
ENZ 19 98 17 22 1E6
RNZ1 19 20 -1
CNZ 19 20 53.052E-9
RNZ2 20 98 -1E-6
*
* POLE AT 10 MHz
*
G2 98 21 20 22 1E-6
R10 21 98 1E6
C5 21 98 15.915E-15
*
* OUTPUT STAGE
*
IDC 99 50 DC 485E-6
RDC1 99 22 1E6
RDC2 22 50 1E6
DO1 99 23 DX
GO1 23 50 27 21 2E-3
DO2 50 23 DY
DO3 99 24 DX
GO2 24 50 21 27 2E-3 
DO4 50 24 DY
VSC1 25 27 3.15
DSC1 21 25 DX
VSC2 27 26 3.15
DSC2 26 21 DX
GO3 27 99 99 21 2E-3 
GO4 50 27 21 50 2E-3 
RO1 99 27 500
RO2 27 50 500
LO 27 28 265E-9
*
* MODELS USED
*
.MODEL QX NPN(BF=1.8519E5)
.MODEL DX D(IS=1E-15)
.MODEL DY D(IS=1E-15 BV=50)
.ENDS
**********
*SRC=AD704K;AD704K;Opamps;AD-"ADxxx";Bipolar Input, 100pA Bias Cur.
*SYM=ADOPAMP
* AD704K SPICE Macro-model 9/91, Rev. B
* AAG / PMI
*
* This version of the AD704 model simulates the worst case 
* parameters of the 'K' grade.  The worst case parameters
* used correspond to those in the data sheet.
*
* Revision History:
* REV B
* Updated op amp architecture implemented.
*
* Node assignments
*              non-inverting input
*              | inverting input
*              | |  positive supply
*              | |  |  negative supply
*              | |  |  |  output
*              | |  |  |  |
.SUBCKT AD704K 1 2 99 50 28
*
* INPUT STAGE & POLE AT 3 MHz
*
IOS 1 2 DC 50E-12
CIN 1 2 2E-12
R1 2 3 1.7684E8
R2 1 3 1.7684E8
EOS 9 1 POLY(1) 16 22 75E-6 1
D1 2 9 DX
D2 9 2 DX
Q1 5 2 10 QX
Q2 6 9 11 QX
R3 99 5 530.51
R4 99 6 530.51
C2 5 6 50E-12
R5 10 4 13.314
R6 11 4 13.314
I1 4 50 100E-6
*
* GAIN STAGE & DOMINANT POLE AT 1.5 HZ
*
EREF 98 0 22 0 1
G1 98 12 5 6 1.885E-3
R7 12 98 159.15E6
C3 12 98 666.67E-12
V1 99 13 DC 2.3625
D3 12 13 DX
V2 14 50 DC 2.3625
D4 14 12 DX
*
* COMMON-MODE GAIN NETWORK WITH ZERO AT 4 kHZ
*
ECM 15 98 3 22 1.9953
RCM1 15 16 1E6
CCM 15 16 39.883E-12
RCM2 16 98 1
*
* ZERO-POLE PAIR AT 165 kHz / 430 kHz
*
GZP1 98 17 12 22 1E-6
RZP1 17 18 1E6
RZP2 18 98 1.6061E6
LZP 18 98 594.45E-3
*
* NEGATIVE ZERO AT -3 MHz
*
ENZ 19 98 17 22 1E6
RNZ1 19 20 -1
CNZ 19 20 53.052E-9
RNZ2 20 98 -1E-6
*
* POLE AT 10 MHz
*
G2 98 21 20 22 1E-6
R10 21 98 1E6
C5 21 98 15.915E-15
*
* OUTPUT STAGE
*
IDC 99 50 DC 485E-6
RDC1 99 22 1E6
RDC2 22 50 1E6
DO1 99 23 DX
GO1 23 50 27 21 2E-3
DO2 50 23 DY
DO3 99 24 DX
GO2 24 50 21 27 2E-3 
DO4 50 24 DY
VSC1 25 27 3.15
DSC1 21 25 DX
VSC2 27 26 3.15
DSC2 26 21 DX
GO3 27 99 99 21 2E-3 
GO4 50 27 21 50 2E-3 
RO1 99 27 500
RO2 27 50 500
LO 27 28 265E-9
*
* MODELS USED
*
.MODEL QX NPN(BF=3.3333E5)
.MODEL DX D(IS=1E-15)
.MODEL DY D(IS=1E-15 BV=50)
.ENDS
**********
*SRC=AD704T;AD704T;Opamps;AD-"ADxxx";Bipolar Input, 100pA Bias Cur.
*SYM=ADOPAMP
* AD704T SPICE Macro-model 9/91, Rev. B
* AAG / PMI
*
* This version of the AD704 model simulates the worst case 
* parameters of the 'T' grade.  The worst case parameters
* used correspond to those in the data sheet.
*
* Revision History:
* REV B
* Updated op amp architecture implemented.
*
* Node assignments
*              non-inverting input
*              | inverting input
*              | |  positive supply
*              | |  |  negative supply
*              | |  |  |  output
*              | |  |  |  |
.SUBCKT AD704T 1 2 99 50 28
*
* INPUT STAGE & POLE AT 3 MHz
*
IOS 1 2 DC 75E-12
CIN 1 2 2E-12
R1 2 3 1.3263E8
R2 1 3 1.3263E8
EOS 9 1 POLY(1) 16 22 100E-6 1
D1 2 9 DX
D2 9 2 DX
Q1 5 2 10 QX
Q2 6 9 11 QX
R3 99 5 530.51
R4 99 6 530.51
C2 5 6 50E-12
R5 10 4 13.314
R6 11 4 13.314
I1 4 50 100E-6
*
* GAIN STAGE & DOMINANT POLE AT 2.25 HZ
*
EREF 98 0 22 0 1
G1 98 12 5 6 1.885E-3
R7 12 98 106.1E6
C3 12 98 666.67E-12
V1 99 13 DC 2.3625
D3 12 13 DX
V2 14 50 DC 2.3625
D4 14 12 DX
*
* COMMON-MODE GAIN NETWORK WITH ZERO AT 6.3 kHZ
*
ECM 15 98 3 22 3.1623
RCM1 15 16 1E6
CCM 15 16 25.165E-12
RCM2 16 98 1
*
* ZERO-POLE PAIR AT 165 kHz / 430 kHz
*
GZP1 98 17 12 22 1E-6
RZP1 17 18 1E6
RZP2 18 98 1.6061E6
LZP 18 98 594.45E-3
*
* NEGATIVE ZERO AT -3 MHz
*
ENZ 19 98 17 22 1E6
RNZ1 19 20 -1
CNZ 19 20 53.052E-9
RNZ2 20 98 -1E-6
*
* POLE AT 10 MHz
*
G2 98 21 20 22 1E-6
R10 21 98 1E6
C5 21 98 15.915E-15
*
* OUTPUT STAGE
*
IDC 99 50 DC 485E-6
RDC1 99 22 1E6
RDC2 22 50 1E6
DO1 99 23 DX
GO1 23 50 27 21 2E-3
DO2 50 23 DY
DO3 99 24 DX
GO2 24 50 21 27 2E-3 
DO4 50 24 DY
VSC1 25 27 3.15
DSC1 21 25 DX
VSC2 27 26 3.15
DSC2 26 21 DX
GO3 27 99 99 21 2E-3 
GO4 50 27 21 50 2E-3 
RO1 99 27 500
RO2 27 50 500
LO 27 28 265E-9
*
* MODELS USED
*
.MODEL QX NPN(BF=2.5E5)
.MODEL DX D(IS=1E-15)
.MODEL DY D(IS=1E-15 BV=50)
.ENDS
**********
*SRC=AD705;AD705;Opamps;AD-"ADxxx";Bipolar Input w/Compensation
*SYM=ADCOMP
* AD705 SPICE Macro-model 9/91, Rev. B
* AAG / PMI
*
* Revision History:
* REV B
* Updated op amp architecture implemented.
* External compensation node added.
*
* Node assignments
*             non-inverting input
*             | inverting input
*             | |  positive supply
*             | |  |  negative supply
*             | |  |  |  output
*             | |  |  |  |  compensation
*             | |  |  |  |  |
.SUBCKT AD705 1 2 99 50 28 12
*
* INPUT STAGE & POLE AT 3 MHz
*
IOS 1 2 DC 15E-12
CIN 1 2 2E-12
R1 2 3 8.8421E8
R2 1 3 8.8421E8
EOS 9 1 POLY(1) 16 22 10E-6 1
D1 2 9 DX
D2 9 2 DX
Q1 5 2 10 QX
Q2 6 9 11 QX
R3 99 5 1.05E3
R4 99 6 1.05E3
C2 5 6 25.263E-12
R5 10 4 26.369
R6 11 4 26.369
I1 4 50 50.526E-6
*
* GAIN STAGE & DOMINANT POLE AT 0.45 HZ
*
EREF 98 0 22 0 1
G1 98 12 5 6 952.38E-6
R7 12 98 1.05E9
C3 12 98 336.84E-12
V1 99 13 DC 1.3375
D3 12 13 DX
V2 14 50 DC 1.3375
D4 14 12 DX
*
* COMMON-MODE GAIN NETWORK WITH ZERO AT 500 HZ
*
ECM 15 98 3 22 251.19E-3
RCM1 15 16 1E6
CCM 15 16 318.31E-12
RCM2 16 98 1
*
* ZERO-POLE PAIR AT 165 kHz / 430 kHz
*
GZP1 98 17 12 22 1E-6
RZP1 17 18 1E6
RZP2 18 98 1.6061E6
LZP 18 98 594.45E-3
*
* NEGATIVE ZERO AT -3 MHz
*
ENZ 19 98 17 22 1E6
RNZ1 19 20 -1
CNZ 19 20 53.052E-9
RNZ2 20 98 -1E-6
*
* POLE AT 10 MHz
*
G2 98 21 20 22 1E-6
R8 21 98 1E6
C4 21 98 15.915E-15
*
* OUTPUT STAGE
*
IDC 99 50 DC 314.47E-6
RDC1 99 22 1E6
RDC2 22 50 1E6
DO1 99 23 DX
GO1 23 50 27 21 2E-3
DO2 50 23 DY
DO3 99 24 DX
GO2 24 50 21 27 2E-3 
DO4 50 24 DY
VSC1 25 27 3.15
DSC1 21 25 DX
VSC2 27 26 3.15
DSC2 26 21 DX
GO3 27 99 99 21 2E-3 
GO4 50 27 21 50 2E-3 
RO1 99 27 500
RO2 27 50 500
LO 27 28 265E-9
*
* MODELS USED
*
.MODEL QX NPN(BF=8.4205E5)
.MODEL DX D(IS=1E-15)
.MODEL DY D(IS=1E-15 BV=50)
.ENDS
**********
*SRC=AD705A;AD705A;Opamps;AD-"ADxxx";Bipolar Input w/Compensation
*SYM=ADCOMP
* AD705A SPICE Macro-model 9/91, Rev. B
* AAG / PMI
*
* This version of the AD705 model simulates the worst case 
* parameters of the 'A' grade.  The worst case parameters
* used correspond to those in the data sheet.
*
* Revision History:
* REV B
* Updated op amp architecture implemented.
* External compensation node added.
*
* Node assignments
*              non-inverting input
*              | inverting input
*              | |  positive supply
*              | |  |  negative supply
*              | |  |  |  output
*              | |  |  |  |  compensation
*              | |  |  |  |  |
.SUBCKT AD705A 1 2 99 50 31 15
*
* INPUT STAGE & POLE AT 3 MHz
*
IOS 1 2 DC 75E-12
CIN 1 2 2E-12
R1 2 3 1.724E8
R2 1 3 1.724E8
EOS 9 1 POLY(1) 19 25 90E-6 1
D1 2 9 DX
D2 9 2 DX
Q1 5 2 4 QX
Q2 6 9 4 QX
R3 99 5 1.5354E3
R4 99 6 1.5354E3
C2 5 6 17.276E-12
I1 4 50 33.684E-6
*
* FIRST GAIN STAGE
*
EREF 98 0 25 0 1
G1 98 12 5 6 56.548E-6
R7 12 98 1.5E6
E1 99 13 POLY(1) 99 25 -2.4 1
D3 12 13 DX
E2 14 50 POLY(1) 25 50 -2.4 1
D4 14 12 DX
*
* SECOND GAIN STAGE & DOMINANT POLE AT 2.25 HZ
*
G2 98 15 12 25 11.228E-6
R8 15 98 210E6
C3 15 98 336.84E-12
V1 99 16 DC 2.3625
D5 15 16 DX
V2 17 50 DC 2.3625
D6 17 15 DX
*
* COMMON-MODE GAIN NETWORK WITH ZERO AT 6.3 kHz
*
ECM 18 98 3 25 3.1623
RCM1 18 19 1E6
CCM 18 19 25.165E-12
RCM2 19 98 1
*
* ZERO-POLE PAIR AT 165 kHz / 430 kHz
*
GZP 98 20 15 25 1E-6
RZP1 20 21 1E6
RZP2 21 98 1.6061E6
LZP 21 98 594.45E-3
*
* NEGATIVE ZERO AT -3 MHz
*
ENZ 22 98 20 25 1E6
RNZ1 22 23 -1
CNZ 22 23 53.052E-9
RNZ2 23 98 -1E-6
*
* POLE AT 10 MHz
*
G3 98 24 23 25 1E-6
R9 24 98 1E6
C5 24 98 15.915E-15
*
* OUTPUT STAGE
*
IDC 99 50 DC 551.32E-6
RDC1 99 25 1E6
RDC2 25 50 1E6
DO1 99 26 DX
GO1 26 50 30 24 2E-3
DO2 50 26 DY
DO3 99 27 DX
GO2 27 50 24 30 2E-3
DO4 50 27 DY
VSC1 28 30 DC 3.15
DSC1 24 28 DX
VSC2 30 29 DC 3.15
DSC2 29 24 DX
GO3 30 99 99 24 2E-3
GO4 50 30 24 50 2E-3
RO1 99 30 500
RO2 30 50 500
LO 30 31 265E-9
*
* MODELS USED
*
.MODEL QX NPN(BF=1.1228E5)
.MODEL DX D(IS=1E-15)
.MODEL DY D(IS=1E-15 BV=50)
.ENDS
**********
*SRC=AD705B;AD705B;Opamps;AD-"ADxxx";Bipolar Input w/Compensation
*SYM=ADCOMP
* AD705B SPICE Macro-model 9/91, Rev. B
* AAG / PMI
*
* This version of the AD705 model simulates the worst case 
* parameters of the 'B' grade.  The worst case parameters
* used correspond to those in the data sheet.
*
* Revision History:
* REV B
* Updated op amp architecture implemented.
* External compensation node added.
*
* Node assignments
*              non-inverting input
*              | inverting input
*              | |  positive supply
*              | |  |  negative supply
*              | |  |  |  output
*              | |  |  |  |  compensation
*              | |  |  |  |  |
.SUBCKT AD705B 1 2 99 50 31 15
*
* INPUT STAGE & POLE AT 3 MHz
*
IOS 1 2 DC 50E-12
CIN 1 2 2E-12
R1 2 3 2.586E8
R2 1 3 2.586E8
EOS 9 1 POLY(1) 19 25 35E-6 1
D1 2 9 DX
D2 9 2 DX
Q1 5 2 4 QX
Q2 6 9 4 QX
R3 99 5 1.5111E3
R4 99 6 1.5111E3
C2 5 6 17.554E-12
I1 4 50 34.227E-6
*
* FIRST GAIN STAGE
*
EREF 98 0 25 0 1
G1 98 12 5 6 57.46E-6
R7 12 98 1.4762E6
E1 99 13 POLY(1) 99 25 -2.4 1
D3 12 13 DX
E2 14 50 POLY(1) 25 50 -2.4 1
D4 14 12 DX
*
* SECOND GAIN STAGE & DOMINANT POLE AT 1.5 HZ
*
G2 98 15 12 25 11.409E-6
R8 15 98 310E6
C3 15 98 342.27E-12
V1 99 16 DC 2.3625
D5 15 16 DX
V2 17 50 DC 2.3625
D6 17 15 DX
*
* COMMON-MODE GAIN NETWORK WITH ZERO AT 4 kHz
*
ECM 18 98 3 25 1.9953
RCM1 18 19 1E6
CCM 18 19 39.88E-12
RCM2 19 98 1
*
* ZERO-POLE PAIR AT 165 kHz / 430 kHz
*
GZP 98 20 15 25 1E-6
RZP1 20 21 1E6
RZP2 21 98 1.6061E6
LZP 21 98 594.45E-3
*
* NEGATIVE ZERO AT -3 MHz
*
ENZ 22 98 20 25 1E6
RNZ1 22 23 -1
CNZ 22 23 53.052E-9
RNZ2 23 98 -1E-6
*
* POLE AT 10 MHz
*
G3 98 24 23 25 1E-6
R9 24 98 1E6
C5 24 98 15.915E-15
*
* OUTPUT STAGE
*
IDC 99 50 DC 550.77E-6
RDC1 99 25 1E6
RDC2 25 50 1E6
DO1 99 26 DX
GO1 26 50 30 24 2E-3
DO2 50 26 DY
DO3 99 27 DX
GO2 27 50 24 30 2E-3
DO4 50 27 DY
VSC1 28 30 DC 3.15
DSC1 24 28 DX
VSC2 30 29 DC 3.15
DSC2 29 24 DX
GO3 30 99 99 24 2E-3
GO4 50 30 24 50 2E-3
RO1 99 30 500
RO2 30 50 500
LO 30 31 265E-9
*
* MODELS USED
*
.MODEL QX NPN(BF=1.7114E5)
.MODEL DX D(IS=1E-15)
.MODEL DY D(IS=1E-15 BV=50)
.ENDS
**********
*SRC=AD705J;AD705J;Opamps;AD-"ADxxx";Bipolar Input w/Compensation
*SYM=ADCOMP
* AD705J SPICE Macro-model 9/91, Rev. B
* AAG / PMI
*
* This version of the AD705 model simulates the worst case 
* parameters of the 'J' grade.  The worst case parameters
* used correspond to those in the data sheet.
*
* Revision History:
* REV B
* Updated op amp architecture implemented.
* External compensation node added.
*
* Node assignments
*              non-inverting input
*              | inverting input
*              | |  positive supply
*              | |  |  negative supply
*              | |  |  |  output
*              | |  |  |  |  compensation
*              | |  |  |  |  |
.SUBCKT AD705J 1 2 99 50 31 15
*
* INPUT STAGE & POLE AT 3 MHz
*
IOS 1 2 DC 75E-12
CIN 1 2 2E-12
R1 2 3 1.724E8
R2 1 3 1.724E8
EOS 9 1 POLY(1) 19 25 90E-6 1
D1 2 9 DX
D2 9 2 DX
Q1 5 2 4 QX
Q2 6 9 4 QX
R3 99 5 1.5354E3
R4 99 6 1.5354E3
C2 5 6 17.276E-12
I1 4 50 33.684E-6
*
* FIRST GAIN STAGE
*
EREF 98 0 25 0 1
G1 98 12 5 6 56.548E-6
R7 12 98 1.5E6
E1 99 13 POLY(1) 99 25 -2.4 1
D3 12 13 DX
E2 14 50 POLY(1) 25 50 -2.4 1
D4 14 12 DX
*
* SECOND GAIN STAGE & DOMINANT POLE AT 2.25 HZ
*
G2 98 15 12 25 11.228E-6
R8 15 98 210E6
C3 15 98 336.84E-12
V1 99 16 DC 2.3625
D5 15 16 DX
V2 17 50 DC 2.3625
D6 17 15 DX
*
* COMMON-MODE GAIN NETWORK WITH ZERO AT 6.3 kHz
*
ECM 18 98 3 25 3.1623
RCM1 18 19 1E6
CCM 18 19 25.165E-12
RCM2 19 98 1
*
* ZERO-POLE PAIR AT 165 kHz / 430 kHz
*
GZP 98 20 15 25 1E-6
RZP1 20 21 1E6
RZP2 21 98 1.6061E6
LZP 21 98 594.45E-3
*
* NEGATIVE ZERO AT -3 MHz
*
ENZ 22 98 20 25 1E6
RNZ1 22 23 -1
CNZ 22 23 53.052E-9
RNZ2 23 98 -1E-6
*
* POLE AT 10 MHz
*
G3 98 24 23 25 1E-6
R9 24 98 1E6
C5 24 98 15.915E-15
*
* OUTPUT STAGE
*
IDC 99 50 DC 551.32E-6
RDC1 99 25 1E6
RDC2 25 50 1E6
DO1 99 26 DX
GO1 26 50 30 24 2E-3
DO2 50 26 DY
DO3 99 27 DX
GO2 27 50 24 30 2E-3
DO4 50 27 DY
VSC1 28 30 DC 3.15
DSC1 24 28 DX
VSC2 30 29 DC 3.15
DSC2 29 24 DX
GO3 30 99 99 24 2E-3
GO4 50 30 24 50 2E-3
RO1 99 30 500
RO2 30 50 500
LO 30 31 265E-9
*
* MODELS USED
*
.MODEL QX NPN(BF=1.1228E5)
.MODEL DX D(IS=1E-15)
.MODEL DY D(IS=1E-15 BV=50)
.ENDS
**********
*SRC=AD705K;AD705K;Opamps;AD-"ADxxx";Bipolar Input w/Compensation
*SYM=ADCOMP
* AD705K SPICE Macro-model 9/91, Rev. B
* AAG / PMI
*
* This version of the AD705 model simulates the worst case 
* parameters of the 'K' grade.  The worst case parameters
* used correspond to those in the data sheet.
*
* Revision History:
* REV B
* Updated op amp architecture implemented.
* External compensation node added.
*
* Node assignments
*              non-inverting input
*              | inverting input
*              | |  positive supply
*              | |  |  negative supply
*              | |  |  |  output
*              | |  |  |  |  compensation
*              | |  |  |  |  |
.SUBCKT AD705K 1 2 99 50 31 15
*
* INPUT STAGE & POLE AT 3 MHz
*
IOS 1 2 DC 50E-12
CIN 1 2 2E-12
R1 2 3 2.586E8
R2 1 3 2.586E8
EOS 9 1 POLY(1) 19 25 35E-6 1
D1 2 9 DX
D2 9 2 DX
Q1 5 2 4 QX
Q2 6 9 4 QX
R3 99 5 1.5111E3
R4 99 6 1.5111E3
C2 5 6 17.554E-12
I1 4 50 34.227E-6
*
* FIRST GAIN STAGE
*
EREF 98 0 25 0 1
G1 98 12 5 6 57.46E-6
R7 12 98 1.4762E6
E1 99 13 POLY(1) 99 25 -2.4 1
D3 12 13 DX
E2 14 50 POLY(1) 25 50 -2.4 1
D4 14 12 DX
*
* SECOND GAIN STAGE & DOMINANT POLE AT 1.5 HZ
*
G2 98 15 12 25 11.409E-6
R8 15 98 310E6
C3 15 98 342.27E-12
V1 99 16 DC 2.3625
D5 15 16 DX
V2 17 50 DC 2.3625
D6 17 15 DX
*
* COMMON-MODE GAIN NETWORK WITH ZERO AT 4 kHz
*
ECM 18 98 3 25 1.9953
RCM1 18 19 1E6
CCM 18 19 39.88E-12
RCM2 19 98 1
*
* ZERO-POLE PAIR AT 165 kHz / 430 kHz
*
GZP 98 20 15 25 1E-6
RZP1 20 21 1E6
RZP2 21 98 1.6061E6
LZP 21 98 594.45E-3
*
* NEGATIVE ZERO AT -3 MHz
*
ENZ 22 98 20 25 1E6
RNZ1 22 23 -1
CNZ 22 23 53.052E-9
RNZ2 23 98 -1E-6
*
* POLE AT 10 MHz
*
G3 98 24 23 25 1E-6
R9 24 98 1E6
C5 24 98 15.915E-15
*
* OUTPUT STAGE
*
IDC 99 50 DC 550.77E-6
RDC1 99 25 1E6
RDC2 25 50 1E6
DO1 99 26 DX
GO1 26 50 30 24 2E-3
DO2 50 26 DY
DO3 99 27 DX
GO2 27 50 24 30 2E-3
DO4 50 27 DY
VSC1 28 30 DC 3.15
DSC1 24 28 DX
VSC2 30 29 DC 3.15
DSC2 29 24 DX
GO3 30 99 99 24 2E-3
GO4 50 30 24 50 2E-3
RO1 99 30 500
RO2 30 50 500
LO 30 31 265E-9
*
* MODELS USED
*
.MODEL QX NPN(BF=1.7114E5)
.MODEL DX D(IS=1E-15)
.MODEL DY D(IS=1E-15 BV=50)
.ENDS
**********
*SRC=AD705T;AD705T;Opamps;AD-"ADxxx";Bipolar Input w/Compensation
*SYM=ADCOMP
* AD705T SPICE Macro-model 9/91, Rev. B
* AAG / PMI
*
* This version of the AD705 model simulates the worst case 
* parameters of the 'T' grade.  The worst case parameters
* used correspond to those in the data sheet.
*
* Revision History:
* REV B
* Updated op amp architecture implemented.
* External compensation node added.
*
* Node assignments
*             non-inverting input
*             | inverting input
*             | |  positive supply
*             | |  |  negative supply
*             | |  |  |  output
*             | |  |  |  |  compensation
*             | |  |  |  |  |
.SUBCKT AD705T 1 2 99 50 31 15
*
* INPUT STAGE & POLE AT 3 MHz
*
IOS 1 2 DC 50E-12
CIN 1 2 2E-12
R1 2 3 2.586E8
R2 1 3 2.586E8
EOS 9 1 POLY(1) 19 25 25E-6 1
D1 2 9 DX
D2 9 2 DX
Q1 5 2 4 QX
Q2 6 9 4 QX
R3 99 5 1.5111E3
R4 99 6 1.5111E3
C2 5 6 17.554E-12
I1 4 50 34.227E-6
*
* FIRST GAIN STAGE
*
EREF 98 0 25 0 1
G1 98 12 5 6 57.46E-6
R7 12 98 1.4762E6
E1 99 13 POLY(1) 99 25 -2.4 1
D3 12 13 DX
E2 14 50 POLY(1) 25 50 -2.4 1
D4 14 12 DX
*
* SECOND GAIN STAGE & DOMINANT POLE AT 1.5 HZ
*
G2 98 15 12 25 11.409E-6
R8 15 98 310E6
C3 15 98 342.27E-12
V1 99 16 DC 2.3625
D5 15 16 DX
V2 17 50 DC 2.3625
D6 17 15 DX
*
* COMMON-MODE GAIN NETWORK WITH ZERO AT 4 kHz
*
ECM 18 98 3 25 1.9953
RCM1 18 19 1E6
CCM 18 19 39.88E-12
RCM2 19 98 1
*
* ZERO-POLE PAIR AT 165 kHz / 430 kHz
*
GZP 98 20 15 25 1E-6
RZP1 20 21 1E6
RZP2 21 98 1.6061E6
LZP 21 98 594.45E-3
*
* NEGATIVE ZERO AT -3 MHz
*
ENZ 22 98 20 25 1E6
RNZ1 22 23 -1
CNZ 22 23 53.052E-9
RNZ2 23 98 -1E-6
*
* POLE AT 10 MHz
*
G3 98 24 23 25 1E-6
R9 24 98 1E6
C5 24 98 15.915E-15
*
* OUTPUT STAGE
*
IDC 99 50 DC 550.77E-6
RDC1 99 25 1E6
RDC2 25 50 1E6
DO1 99 26 DX
GO1 26 50 30 24 2E-3
DO2 50 26 DY
DO3 99 27 DX
GO2 27 50 24 30 2E-3
DO4 50 27 DY
VSC1 28 30 DC 3.15
DSC1 24 28 DX
VSC2 30 29 DC 3.15
DSC2 29 24 DX
GO3 30 99 99 24 2E-3
GO4 50 30 24 50 2E-3
RO1 99 30 500
RO2 30 50 500
LO 30 31 265E-9
*
* MODELS USED
*
.MODEL QX NPN(BF=1.7114E5)
.MODEL DX D(IS=1E-15)
.MODEL DY D(IS=1E-15 BV=50)
.ENDS
**********
*SRC=AD706;AD706;Opamps;AD-"ADxxx";Bipolar Input, 110pA Bias Cur.
*SYM=ADOPAMP
* AD706 SPICE Macro-model 9/91, Rev. A
* AAG / PMI
*
* Node assignments
*             non-inverting input
*             | inverting input
*             | |  positive supply
*             | |  |  negative supply
*             | |  |  |  output
*             | |  |  |  |
.SUBCKT AD706 1 2 99 50 28
*
* INPUT STAGE & POLE AT 3 MHz
*
IOS 1 2 DC 15E-12
CIN 1 2 2E-12
R1 2 3 8.8415E8
R2 1 3 8.8415E8
EOS 9 1 POLY(1) 16 22 10E-6 1
D1 2 9 DX
D2 9 2 DX
Q1 5 2 10 QX
Q2 6 9 11 QX
R3 99 5 530.51
R4 99 6 530.51
C2 5 6 50E-12
R5 10 4 13.314
R6 11 4 13.314
I1 4 50 100E-6
*
* GAIN STAGE & DOMINANT POLE AT 0.45 HZ
*
EREF 98 0 22 0 1
G1 98 12 5 6 1.885E-3
R7 12 98 530.51E6
C3 12 98 666.67E-12
V1 99 13 DC 1.3375
D3 12 13 DX
V2 14 50 DC 1.3375
D4 14 12 DX
*
* COMMON-MODE GAIN NETWORK WITH ZERO AT 500 HZ
*
ECM 15 98 3 22 251.19E-3
RCM1 15 16 1E6
CCM 15 16 318.31E-12
RCM2 16 98 1
*
* ZERO-POLE PAIR AT 165 kHz / 430 kHz
*
GZP1 98 17 12 22 1E-6
RZP1 17 18 1E6
RZP2 18 98 1.6061E6
LZP 18 98 594.45E-3
*
* NEGATIVE ZERO AT -3 MHz
*
ENZ 19 98 17 22 1E6
RNZ1 19 20 -1
CNZ 19 20 53.052E-9
RNZ2 20 98 -1E-6
*
* POLE AT 10 MHz
*
G2 98 21 20 22 1E-6
R10 21 98 1E6
C5 21 98 15.915E-15
*
* OUTPUT STAGE
*
IDC 99 50 DC 260E-6
RDC1 99 22 1E6
RDC2 22 50 1E6
DO1 99 23 DX
GO1 23 50 27 21 2E-3
DO2 50 23 DY
DO3 99 24 DX
GO2 24 50 21 27 2E-3 
DO4 50 24 DY
VSC1 25 27 3.15
DSC1 21 25 DX
VSC2 27 26 3.15
DSC2 26 21 DX
GO3 27 99 99 21 2E-3 
GO4 50 27 21 50 2E-3 
RO1 99 27 500
RO2 27 50 500
LO 27 28 265E-9
*
* MODELS USED
*
.MODEL QX NPN(BF=1.6667E6)
.MODEL DX D(IS=1E-15)
.MODEL DY D(IS=1E-15 BV=50)
.ENDS
**********
*SRC=AD706A;AD706A;Opamps;AD-"ADxxx";Bipolar Input, 110pA Bias Cur.
*SYM=ADOPAMP
* AD706A SPICE Macro-model 9/91, Rev. A
* AAG / PMI
*
* This version of the AD706 model simulates the worst case 
* parameters of the 'A' grade.  The worst case parameters
* used correspond to those in the data sheet.
*
* Node assignments
*              non-inverting input
*              | inverting input
*              | |  positive supply
*              | |  |  negative supply
*              | |  |  |  output
*              | |  |  |  |
.SUBCKT AD706A 1 2 99 50 28
*
* INPUT STAGE & POLE AT 3 MHz
*
IOS 1 2 DC 75E-12
CIN 1 2 2E-12
R1 2 3 1.3263E8
R2 1 3 1.3263E8
EOS 9 1 POLY(1) 16 22 100E-6 1
D1 2 9 DX
D2 9 2 DX
Q1 5 2 10 QX
Q2 6 9 11 QX
R3 99 5 530.51
R4 99 6 530.51
C2 5 6 50E-12
R5 10 4 13.314
R6 11 4 13.314
I1 4 50 100E-6
*
* GAIN STAGE & DOMINANT POLE AT 2.25 HZ
*
EREF 98 0 22 0 1
G1 98 12 5 6 1.885E-3
R7 12 98 106.1E6
C3 12 98 666.67E-12
V1 99 13 DC 2.3635
D3 12 13 DX
V2 14 50 DC 2.3625
D4 14 12 DX
*
* COMMON-MODE GAIN NETWORK WITH ZERO AT 6.32 kHZ
*
ECM 15 98 3 22 3.1623
RCM1 15 16 1E6
CCM 15 16 25.165E-12
RCM2 16 98 1
*
* ZERO-POLE PAIR AT 165 kHz / 430 kHz
*
GZP1 98 17 12 22 1E-6
RZP1 17 18 1E6
RZP2 18 98 1.6061E6
LZP 18 98 594.45E-3
*
* NEGATIVE ZERO AT -3 MHz
*
ENZ 19 98 17 22 1E6
RNZ1 19 20 -1
CNZ 19 20 53.052E-9
RNZ2 20 98 -1E-6
*
* POLE AT 10 MHz
*
G2 98 21 20 22 1E-6
R10 21 98 1E6
C5 21 98 15.915E-15
*
* OUTPUT STAGE
*
IDC 99 50 DC 485E-6
RDC1 99 22 1E6
RDC2 22 50 1E6
DO1 99 23 DX
GO1 23 50 27 21 2E-3
DO2 50 23 DY
DO3 99 24 DX
GO2 24 50 21 27 2E-3 
DO4 50 24 DY
VSC1 25 27 3.15
DSC1 21 25 DX
VSC2 27 26 3.15
DSC2 26 21 DX
GO3 27 99 99 21 2E-3 
GO4 50 27 21 50 2E-3 
RO1 99 27 500
RO2 27 50 500
LO 27 28 265E-9
*
* MODELS USED
*
.MODEL QX NPN(BF=250E3)
.MODEL DX D(IS=1E-15)
.MODEL DY D(IS=1E-15 BV=50)
.ENDS
**********
*SRC=AD706B;AD706B;Opamps;AD-"ADxxx";Bipolar Input, 110pA Bias Cur.
*SYM=ADOPAMP
* AD706B SPICE Macro-model 9/91, Rev. A
* AAG / PMI
*
* This version of the AD706 model simulates the worst case 
* parameters of the 'B' grade.  The worst case parameters
* used correspond to those in the data sheet.
*
* Node assignments
*              non-inverting input
*              | inverting input
*              | |  positive supply
*              | |  |  negative supply
*              | |  |  |  output
*              | |  |  |  |
.SUBCKT AD706B 1 2 99 50 28
*
* INPUT STAGE & POLE AT 3 MHz
*
IOS 1 2 DC 50E-12
CIN 1 2 2E-12
R1 2 3 2.4114E8
R2 1 3 2.4114E8
EOS 9 1 POLY(1) 16 22 50E-6 1
D1 2 9 DX
D2 9 2 DX
Q1 5 2 10 QX
Q2 6 9 11 QX
R3 99 5 530.51
R4 99 6 530.51
C2 5 6 50E-12
R5 10 4 13.314
R6 11 4 13.314
I1 4 50 100E-6
*
* GAIN STAGE & DOMINANT POLE AT 1.5 HZ
*
EREF 98 0 22 0 1
G1 98 12 5 6 1.885E-3
R7 12 98 159.15E6
C3 12 98 666.67E-12
V1 99 13 DC 2.3635
D3 12 13 DX
V2 14 50 DC 2.3625
D4 14 12 DX
*
* COMMON-MODE GAIN NETWORK WITH ZERO AT 4 kHZ
*
ECM 15 98 3 22 1.9953
RCM1 15 16 1E6
CCM 15 16 39.88E-12
RCM2 16 98 1
*
* ZERO-POLE PAIR AT 165 kHz / 430 kHz
*
GZP1 98 17 12 22 1E-6
RZP1 17 18 1E6
RZP2 18 98 1.6061E6
LZP 18 98 594.45E-3
*
* NEGATIVE ZERO AT -3 MHz
*
ENZ 19 98 17 22 1E6
RNZ1 19 20 -1
CNZ 19 20 53.052E-9
RNZ2 20 98 -1E-6
*
* POLE AT 10 MHz
*
G2 98 21 20 22 1E-6
R10 21 98 1E6
C5 21 98 15.915E-15
*
* OUTPUT STAGE
*
IDC 99 50 DC 485E-6
RDC1 99 22 1E6
RDC2 22 50 1E6
DO1 99 23 DX
GO1 23 50 27 21 2E-3
DO2 50 23 DY
DO3 99 24 DX
GO2 24 50 21 27 2E-3 
DO4 50 24 DY
VSC1 25 27 3.15
DSC1 21 25 DX
VSC2 27 26 3.15
DSC2 26 21 DX
GO3 27 99 99 21 2E-3 
GO4 50 27 21 50 2E-3 
RO1 99 27 500
RO2 27 50 500
LO 27 28 265E-9
*
* MODELS USED
*
.MODEL QX NPN(BF=454.55E3)
.MODEL DX D(IS=1E-15)
.MODEL DY D(IS=1E-15 BV=50)
.ENDS
**********
*SRC=AD706J;AD706J;Opamps;AD-"ADxxx";Bipolar Input, 110pA Bias Cur.
*SYM=ADOPAMP
* AD706J SPICE Macro-model 9/91, Rev. A
* AAG / PMI
*
* This version of the AD706 model simulates the worst case 
* parameters of the 'J' grade.  The worst case parameters
* used correspond to those in the data sheet.
*
* Node assignments
*              non-inverting input
*              | inverting input
*              | |  positive supply
*              | |  |  negative supply
*              | |  |  |  output
*              | |  |  |  |
.SUBCKT AD706J 1 2 99 50 28
*
* INPUT STAGE & POLE AT 3 MHz
*
IOS 1 2 DC 75E-12
CIN 1 2 2E-12
R1 2 3 1.3263E8
R2 1 3 1.3263E8
EOS 9 1 POLY(1) 16 22 100E-6 1
D1 2 9 DX
D2 9 2 DX
Q1 5 2 10 QX
Q2 6 9 11 QX
R3 99 5 530.51
R4 99 6 530.51
C2 5 6 50E-12
R5 10 4 13.314
R6 11 4 13.314
I1 4 50 100E-6
*
* GAIN STAGE & DOMINANT POLE AT 2.25 HZ
*
EREF 98 0 22 0 1
G1 98 12 5 6 1.885E-3