***********
*SRC=AD844A;AD844A;Opamps;AD-"ADxxx";2000V/us, w/Comp
*SYM=ADCOMP
* AD844A SPICE Macro-model                  7/91, Rev. A   
*                                           JCB / PMI
*
*
* This version of the AD844 model simulates the worst case 
* parameters of the 'A' grade.  The worst case parameters
* used correspond to those in the data sheet.
*
* Node assignments
*              non-inverting input
*              | inverting input
*              | | positive supply
*              | | |  negative supply
*              | | |  |  output
*              | | |  |  |  compensation node
*              | | |  |  |  |
.SUBCKT AD844A 1 2 99 50 28 12
*
* INPUT STAGE
*
R1   99  8     1E3
R2   10 50     1E3
V1   99  9     6.6
D1   9   8     DX
V2   11 50     6.6
D2   10 11     DX
I1   99  5     200E-6
I2   4  50     200E-6
Q1   50  3  5  QP 
Q2   99  3  4  QN 
Q3   8   6 30  QN
Q4   10  7 30  QP 
R3   5   6     300E3
R4   4   7     300E3
C1   99  6     8.8E-15
C2   50  7     8.8E-15
*
* INPUT ERROR SOURCES
* 
GB1  99  1     POLY(1)  1  22  400E-9  150E-9
GB2  99 30     POLY(1)  1  22  450E-9  160E-9
VOS  3   1     300E-6
LS1  30  2     1E-8
CS1  99  2     1E-12
CS2  50  2     1E-12
*
EREF 97  0     22  0  1
*
* GAIN STAGE & DOMINANT POLE
*
R5   12 97     2.2E6
C3   12 97     5.5E-12
G1   97 12     99  8  1E-3
G2   12 97     10 50  1E-3
V3   99 13     5.3
V4   14 50     5.3
D3   12 13     DX
D4   14 12     DX
*
* POLE AT 70 MHZ
*
R8  17 97     1E6
C4  17 97     3.18E-15
G4  97 17     12 22  1E-6
*
* POLE AT 300 MHZ
*
R12 21 97     1E6
C8  21 97     0.318E-15
G8  97 21     17 22  1E-6
*
* OUTPUT STAGE
*
ISY 99 50     6.1E-3
R13 22 99     16.7E3
R14 22 50     16.7E3
R15 27 99     30
R16 27 50     30
L2  27 28     6E-8
G9  25 50     21 27  33.33E-3
G10 26 50     27 21  33.33E-3
G11 27 99     99 21  33.33E-3
G12 50 27     21 50  33.33E-3
V5  23 27     0.5
V6  27 24     0.5
D5  21 23     DX
D6  24 21     DX
D7  99 25     DX
D8  99 26     DX
D9  50 25     DY
D10 50 26     DY
*
* MODELS USED
*
.MODEL QN   NPN(BF=1E9 IS=1E-15)
.MODEL QP   PNP(BF=1E9 IS=1E-15)
.MODEL DX   D(IS=1E-15)
.MODEL DY   D(IS=1E-15 BV=50)
.ENDS
**********
*SRC=AD844B;AD844B;Opamps;AD-"ADxxx";2000V/us, w/Comp
*SYM=ADCOMP
* AD844B SPICE Macro-model                  7/91, Rev. A   
*                                           JCB / PMI
*
*
* This version of the AD844 model simulates the worst case 
* parameters of the 'B' grade.  The worst case parameters
* used correspond to those in the data sheet.
*
* Node assignments
*              non-inverting input
*              | inverting input
*              | | positive supply
*              | | |  negative supply
*              | | |  |  output
*              | | |  |  |  compensation node
*              | | |  |  |  |
.SUBCKT AD844B 1 2 99 50 28 12
*
* INPUT STAGE
*
R1   99  8     1E3
R2   10 50     1E3
V1   99  9     6.6
D1   9   8     DX
V2   11 50     6.6
D2   10 11     DX
I1   99  5     200E-6
I2   4  50     200E-6
Q1   50  3  5  QP 
Q2   99  3  4  QN 
Q3   8   6 30  QN
Q4   10  7 30  QP 
R3   5   6     300E3
R4   4   7     300E3
C1   99  6     8.8E-15
C2   50  7     8.8E-15
*
* INPUT ERROR SOURCES
* 
GB1  99  1     POLY(1)  1  22  200E-9  120E-9
GB2  99 30     POLY(1)  1  22  250E-9  110E-9
VOS  3   1     150E-6
LS1  30  2     1E-8
CS1  99  2     1E-12
CS2  50  2     1E-12
*
EREF 97  0     22  0  1
*
* GAIN STAGE & DOMINANT POLE
*
R5   12 97     2.8E6
C3   12 97     5.5E-12
G1   97 12     99  8  1E-3
G2   12 97     10 50  1E-3
V3   99 13     5.3
V4   14 50     5.3
D3   12 13     DX
D4   14 12     DX
*
* POLE AT 70 MHZ
*
R8  17 97     1E6
C4  17 97     3.18E-15
G4  97 17     12 22  1E-6
*
* POLE AT 300 MHZ
*
R12 21 97     1E6
C8  21 97     0.318E-15
G8  97 21     17 22  1E-6
*
* OUTPUT STAGE
*
ISY 99 50     6.1E-3
R13 22 99     16.7E3
R14 22 50     16.7E3
R15 27 99     30
R16 27 50     30
L2  27 28     6E-8
G9  25 50     21 27  33.33E-3
G10 26 50     27 21  33.33E-3
G11 27 99     99 21  33.33E-3
G12 50 27     21 50  33.33E-3
V5  23 27     0.5
V6  27 24     0.5
D5  21 23     DX
D6  24 21     DX
D7  99 25     DX
D8  99 26     DX
D9  50 25     DY
D10 50 26     DY
*
* MODELS USED
*
.MODEL QN   NPN(BF=1E9 IS=1E-15)
.MODEL QP   PNP(BF=1E9 IS=1E-15)
.MODEL DX   D(IS=1E-15)
.MODEL DY   D(IS=1E-15 BV=50)
.ENDS
**********
*SRC=AD844S;AD844S;Opamps;AD-"ADxxx";2000V/us, w/Comp
*SYM=ADCOMP
* AD844S SPICE Macro-model                  7/91, Rev. A   
*                                           JCB / PMI
*
*
* This version of the AD844 model simulates the worst case 
* parameters of the 'S' grade.  The worst case parameters
* used correspond to those in the data sheet.
*
* Node assignments
*              non-inverting input
*              | inverting input
*              | | positive supply
*              | | |  negative supply
*              | | |  |  output
*              | | |  |  |  compensation node
*              | | |  |  |  |
.SUBCKT AD844S 1 2 99 50 28 12
*
* INPUT STAGE
*
R1   99  8     1E3
R2   10 50     1E3
V1   99  9     6.6
D1   9   8     DX
V2   11 50     6.6
D2   10 11     DX
I1   99  5     200E-6
I2   4  50     200E-6
Q1   50  3  5  QP 
Q2   99  3  4  QN 
Q3   8   6 30  QN
Q4   10  7 30  QP 
R3   5   6     300E3
R4   4   7     300E3
C1   99  6     8.8E-15
C2   50  7     8.8E-15
*
* INPUT ERROR SOURCES
* 
GB1  99  1     POLY(1)  1  22  400E-9  150E-9
GB2  99 30     POLY(1)  1  22  450E-9  160E-9
VOS  3   1     300E-6
LS1  30  2     1E-8
CS1  99  2     1E-12
CS2  50  2     1E-12
*
EREF 97  0     22  0  1
*
* GAIN STAGE & DOMINANT POLE
*
R5   12 97     2.2E6
C3   12 97     5.5E-12
G1   97 12     99  8  1E-3
G2   12 97     10 50  1E-3
V3   99 13     5.3
V4   14 50     5.3
D3   12 13     DX
D4   14 12     DX
*
* POLE AT 70 MHZ
*
R8  17 97     1E6
C4  17 97     3.18E-15
G4  97 17     12 22  1E-6
*
* POLE AT 300 MHZ
*
R12 21 97     1E6
C8  21 97     0.318E-15
G8  97 21     17 22  1E-6
*
* OUTPUT STAGE
*
ISY 99 50     6.1E-3
R13 22 99     16.7E3
R14 22 50     16.7E3
R15 27 99     30
R16 27 50     30
L2  27 28     6E-8
G9  25 50     21 27  33.33E-3
G10 26 50     27 21  33.33E-3
G11 27 99     99 21  33.33E-3
G12 50 27     21 50  33.33E-3
V5  23 27     0.5
V6  27 24     0.5
D5  21 23     DX
D6  24 21     DX
D7  99 25     DX
D8  99 26     DX
D9  50 25     DY
D10 50 26     DY
*
* MODELS USED
*
.MODEL QN   NPN(BF=1E9 IS=1E-15)
.MODEL QP   PNP(BF=1E9 IS=1E-15)
.MODEL DX   D(IS=1E-15)
.MODEL DY   D(IS=1E-15 BV=50)
.ENDS
**********
*SRC=AD845A;AD845A;Opamps;AD-"ADxxx";FET Input, Precision
*SYM=ADOPAMP
* AD845A SPICE Macro-model                12/90, Rev. A   
*                                          AAG / PMI
*
* This version of the AD-845 model simulates the worst case 
* parameters of the 'A' grade.  The worst case parameters
* used correspond to those in the data sheet.
*
* Node assignments
*               non-inverting input
*               | inverting input
*               | | positive supply
*               | | |   negative supply
*               | | |   |   output
*               | | |   |   |
.SUBCKT AD845A  1 2 100 101 36
*
* INPUT STAGE & POLE AT 170 MHz
*
R1  1  3  5E10
R2  2  3  5E10
R3  100  5  656.31
R4  100  6  656.31
CIN  1  2  4E-12
C2  5  6  713.23E-15
I1  4  101  1E-3
IOS  1  2  DC  150E-12
EOS  7  1  POLY(1)  13  14  1.5E-3  1
J1  5  2  4  JX
J2  6  7  4  JX
*
* GAIN STAGE & DOMINANT POLE AT 194 Hz
*
EREF  8  0  14  0  1
G1  8  9  5  6  1.5237E-3
R5  9  8  65.631E6
C3  9  8  12.5E-12
V1  100  10  DC  2.8125
D1  9  10  DX
V2  11  101  DC  2.8125
D2  11  9  DX
*
* COMMON-MODE GAIN NETWORK WITH ZERO AT 158.49 KHz
*
ECM  12  8  3  14  50.119
RCM1  12  13  1E6
RCM2  13  8  1
CCM  12  13  1.0042E-12
*
*  VIRTUAL NODE
*
RVN1  100  14  17.33E3
RVN2  14  101  17.33E3
*
* POLE STAGE AT 170 MHz
*
GP1  8  15  9  14  1E-6
RP1  15  8  1E6
CP1  15  8  0.93621E-15
*
* NEGATIVE ZERO STAGE AT 46 MHz
*
EZ1  16  8  15  14  1E6
RZ1  16  17 -1
RZ2  17  8  -1E-6
CZ1  16  17  3.4599E-9
*
* POLE STAGE AT 170 MHz
*
GP2  8  18  17  14  1E-6
RP2  18  8  1E6
CP2  18  8  0.93621E-15
*
* OUTPUT STAGE
*
IDC  100  101  DC  10.135E-3
VX  18  30
V3  32  35  DC  0.15
D3  30  32  DX
V4  35  33  DC  0.15
D4  33  30  DX
D5  100  31  DX
GO1  31  101  30  35  33.33E-3
D6  101  31  DY
D7  100  34  DX
GO2  34  101  35  30  33.33E-3
D8  101  34  DY
RO1  100  35  30
GO3  35  100  100  30  33.33E-3
RO2  35  101  30
GO4  101  35  30  101  33.33E-3
LO  35  36  45E-9
*
* MODELS USED
*
.MODEL JX NJF(VTO=-2 BETA=1.1608E-3 IS=1E-9)
.MODEL DX D(IS=1E-15)
.MODEL DY D(IS=1E-15 BV=50)
.ENDS
**********
*SRC=AD845B;AD845B;Opamps;AD-"ADxxx";FET Input, Precision
*SYM=ADOPAMP
* AD845B SPICE Macro-model                12/90, Rev. A   
*                                          AAG / PMI
*
* This version of the AD-845 model simulates the worst case 
* parameters of the 'B' grade.  The worst case parameters
* used correspond to those in the data sheet.
*
* Node assignments
*               non-inverting input
*               | inverting input
*               | | positive supply
*               | | |   negative supply
*               | | |   |   output
*               | | |   |   |
.SUBCKT AD845B  1 2 100 101 36
*
* INPUT STAGE & POLE AT 170 MHz
*
R1  1  3  5E10
R2  2  3  5E10
R3  100  5  771.16
R4  100  6  771.16
CIN  1  2  4E-12
C2  5  6  607.01E-15
I1  4  101  1E-3
IOS  1  2  DC  50E-12
EOS  7  1  POLY(1)  13  14  250E-6  1
J1  5  2  4  JX
J2  6  7  4  JX
*
* GAIN STAGE & DOMINANT POLE AT 155.2 Hz
*
EREF  8  0  14  0  1
G1  8  9  5  6  1.2967E-3
R5  9  8  96.395E6
C3  9  8  10.638E-12
V1  100  10  DC  2.8125
D1  9  10  DX
V2  11  101  DC  2.8125
D2  11  9  DX
*
* COMMON-MODE GAIN NETWORK WITH ZERO AT 63.096 KHz
*
ECM  12  8  3  14  19.953
RCM1  12  13  1E6
RCM2  13  8  1
CCM  12  13  2.522E-12
*
*  VIRTUAL NODE
*
RVN1  100  14  17.33E3
RVN2  14  101  17.33E3
*
* POLE STAGE AT 170 MHz
*
GP1  8  15  9  14  1E-6
RP1  15  8  1E6
CP1  15  8  0.93621E-15
*
* NEGATIVE ZERO STAGE AT 46 MHz
*
EZ1  16  8  15  14  1E6
RZ1  16  17  -1
RZ2  17  8  -1E-6
CZ1  16  17  3.4599E-9
*
* POLE STAGE AT 170 MHz
*
GP2  8  18  17  14  1E-6
RP2  18  8  1E6
CP2  18  8  0.93621E-15
*
* OUTPUT STAGE
*
IDC  100  101  DC  10.135E-3
VX  18  30
V3  32  35  DC  0.15
D3  30  32  DX
V4  35  33  DC  0.15
D4  33  30  DX
D5  100  31  DX
GO1  31  101  30  35  33.33E-3
D6  101  31  DY
D7  100  34  DX
GO2  34  101  35  30  33.33E-3
D8  101  34  DY
RO1  100  35  30
GO3  35  100  100  30  33.33E-3
RO2  35  101  30
GO4  101  35  30  101  33.33E-3
LO  35  36  45E-9
*
* MODELS USED
*
.MODEL JX NJF(VTO=-2 BETA=840.77E-6 IS=5E-10)
.MODEL DX D(IS=1E-15)
.MODEL DY D(IS=1E-15 BV=50)
.ENDS
**********
*SRC=AD845J;AD845J;Opamps;AD-"ADxxx";FET Input, Precision
*SYM=ADOPAMP
* AD845J SPICE Macro-model                12/90, Rev. A   
*                                          AAG / PMI
*
* This version of the AD-845 model simulates the worst case 
* parameters of the 'J' grade.  The worst case parameters
* used correspond to those in the data sheet.
*
* Node assignments
*               non-inverting input
*               | inverting input
*               | | positive supply
*               | | |   negative supply
*               | | |   |   output
*               | | |   |   |
.SUBCKT AD845J  1 2 100 101 36
*
* INPUT STAGE & POLE AT 170 MHz
*
R1  1  3  5E10
R2  2  3  5E10
R3  100  5  656.31
R4  100  6  656.31
CIN  1  2  4E-12
C2  5  6  713.23E-15
I1  4  101  1E-3
IOS  1  2  DC  150E-12
EOS  7  1  POLY(1)  13  14  1.5E-3  1
J1  5  2  4  JX
J2  6  7  4  JX
*
* GAIN STAGE & DOMINANT POLE AT 194 Hz
*
EREF  8  0  14  0  1
G1  8  9  5  6  1.5237E-3
R5  9  8  65.631E6
C3  9  8  12.5E-12
V1  100  10  DC  2.8125
D1  9  10  DX
V2  11  101  DC  2.8125
D2  11  9  DX
*
* COMMON-MODE GAIN NETWORK WITH ZERO AT 158.49 KHz
*
ECM  12  8  3  14  50.119
RCM1  12  13  1E6
RCM2  13  8  1
CCM  12  13  1.0042E-12
*
*  VIRTUAL NODE
*
RVN1  100  14  17.33E3
RVN2  14  101  17.33E3
*
* POLE STAGE AT 170 MHz
*
GP1  8  15  9  14  1E-6
RP1  15  8  1E6
CP1  15  8  0.93621E-15
*
* NEGATIVE ZERO STAGE AT 46 MHz
*
EZ1  16  8  15  14  1E6
RZ1  16  17  -1
RZ2  17  8  -1E-6
CZ1  16  17  3.4599E-9
*
* POLE STAGE AT 170 MHz
*
GP2  8  18  17  14  1E-6
RP2  18  8  1E6
CP2  18  8  0.93621E-15
*
* OUTPUT STAGE
*
IDC  100  101  DC  10.135E-3
VX  18  30
V3  32  35  DC  0.15
D3  30  32  DX
V4  35  33  DC  0.15
D4  33  30  DX
D5  100  31  DX
GO1  31  101  30  35  33.33E-3
D6  101  31  DY
D7  100  34  DX
GO2  34  101  35  30  33.33E-3
D8  101  34  DY
RO1  100  35  30
GO3  35  100  100  30  33.33E-3
RO2  35  101  30
GO4  101  35  30  101  33.33E-3
LO  35  36  45E-9
*
* MODELS USED
*
.MODEL JX NJF(VTO=-2 BETA=1.1608E-3 IS=1E-9)
.MODEL DX D(IS=1E-15)
.MODEL DY D(IS=1E-15 BV=50)
.ENDS
**********
*SRC=AD845K;AD845K;Opamps;AD-"ADxxx";FET Input, Precision
*SYM=ADOPAMP
* AD845K SPICE Macro-model                12/90, Rev. A   
*                                          AAG / PMI
*
* This version of the AD-845 model simulates the worst case 
* parameters of the 'K' grade.  The worst case parameters
* used correspond to those in the data sheet.
*
* Node assignments
*               non-inverting input
*               | inverting input
*               | | positive supply
*               | | |   negative supply
*               | | |   |   output
*               | | |   |   |
.SUBCKT AD845K  1 2 100 101 36
*
* INPUT STAGE & POLE AT 170 MHz
*
R1  1  3  5E10
R2  2  3  5E10
R3  100  5  771.16
R4  100  6  771.16
CIN  1  2  4E-12
C2  5  6  607.01E-15
I1  4  101  1E-3
IOS  1  2  DC  50E-12
EOS  7  1  POLY(1)  13  14  250E-6  1
J1  5  2  4  JX
J2  6  7  4  JX
*
* GAIN STAGE & DOMINANT POLE AT 155.2 Hz
*
EREF  8  0  14  0  1
G1  8  9  5  6  1.2967E-3
R5  9  8  96.395E6
C3  9  8  10.638E-12
V1  100  10  DC  2.8125
D1  9  10  DX
V2  11  101  DC  2.8125
D2  11  9  DX
*
* COMMON-MODE GAIN NETWORK WITH ZERO AT 63.096 KHz
*
ECM  12  8  3  14  19.953
RCM1  12  13  1E6
RCM2  13  8  1
CCM  12  13  2.522E-12
*
*  VIRTUAL NODE
*
RVN1  100  14  17.33E3
RVN2  14  101  17.33E3
*
* POLE STAGE AT 170 MHz
*
GP1  8  15  9  14  1E-6
RP1  15  8  1E6
CP1  15  8  0.93621E-15
*
* NEGATIVE ZERO STAGE AT 46 MHz
*
EZ1  16  8  15  14  1E6
RZ1  16  17  -1
RZ2  17  8  -1E-6
CZ1  16  17  3.4599E-9
*
* POLE STAGE AT 170 MHz
*
GP2  8  18  17  14  1E-6
RP2  18  8  1E6
CP2  18  8  0.93621E-15
*
* OUTPUT STAGE
*
IDC  100  101  DC  10.135E-3
VX  18  30
V3  32  35  DC  0.15
D3  30  32  DX
V4  35  33  DC  0.15
D4  33  30  DX
D5  100  31  DX
GO1  31  101  30  35  33.33E-3
D6  101  31  DY
D7  100  34  DX
GO2  34  101  35  30  33.33E-3
D8  101  34  DY
RO1  100  35  30
GO3  35  100  100  30  33.33E-3
RO2  35  101  30
GO4  101  35  30  101  33.33E-3
LO  35  36  45E-9
*
* MODELS USED
*
.MODEL JX NJF(VTO=-2 BETA=840.77E-6 IS=5E-10)
.MODEL DX D(IS=1E-15)
.MODEL DY D(IS=1E-15 BV=50)
.ENDS
**********
*SRC=AD845S;AD845S;Opamps;AD-"ADxxx";FET Input, Precision
*SYM=ADOPAMP
* AD845S SPICE Macro-model                12/90, Rev. A   
*                                          AAG / PMI
*
* This version of the AD-845 model simulates the worst case 
* parameters of the 'S' grade.  The worst case parameters
* used correspond to those in the data sheet.
*
* Node assignments
*               non-inverting input
*               | inverting input
*               | | positive supply
*               | | |   negative supply
*               | | |   |   output
*               | | |   |   |
.SUBCKT AD845S  1 2 100 101 36
*
* INPUT STAGE & POLE AT 170 MHz
*
R1  1  3  5E10
R2  2  3  5E10
R3  100  5  771.16
R4  100  6  771.16
CIN  1  2  4E-12
C2  5  6  607.01E-15
I1  4  101  1E-3
IOS  1  2  DC  150E-12
EOS  7  1  POLY(1)  13  14  1E-3  1
J1  5  2  4  JX
J2  6  7  4  JX
*
* GAIN STAGE & DOMINANT POLE AT 194 Hz
*
EREF  8  0  14  0  1
G1  8  9  5  6  1.2967E-3
R5  9  8  77.116E6
C3  9  8  10.638E-12
V1  100  10  DC  2.8125
D1  9  10  DX
V2  11  101  DC  2.8125
D2  11  9  DX
*
* COMMON-MODE GAIN NETWORK WITH ZERO AT 158.49 KHz
*
ECM  12  8  3  14  50.119
RCM1  12  13  1E6
RCM2  13  8  1
CCM  12  13  1.0042E-12
*
*  VIRTUAL NODE
*
RVN1  100  14  17.33E3
RVN2  14  101  17.33E3
*
* POLE STAGE AT 170 MHz
*
GP1  8  15  9  14  1E-6
RP1  15  8  1E6
CP1  15  8  0.93621E-15
*
* NEGATIVE ZERO STAGE AT 46 MHz
*
EZ1  16  8  15  14  1E6
RZ1  16  17  -1
RZ2  17  8  -1E-6
CZ1  16  17  3.4599E-9
*
* POLE STAGE AT 170 MHz
*
GP2  8  18  17  14  1E-6
RP2  18  8  1E6
CP2  18  8  0.93621E-15
*
* OUTPUT STAGE
*
IDC  100  101  DC  10.135E-3
VX  18  30
V3  32  35  DC  0.15
D3  30  32  DX
V4  35  33  DC  0.15
D4  33  30  DX
D5  100  31  DX
GO1  31  101  30  35  33.33E-3
D6  101  31  DY
D7  100  34  DX
GO2  34  101  35  30  33.33E-3
D8  101  34  DY
RO1  100  35  30
GO3  35  100  100  30  33.33E-3
RO2  35  101  30
GO4  101  35  30  101  33.33E-3
LO  35  36  45E-9
*
* MODELS USED
*
.MODEL JX NJF(VTO=-2 BETA=840.77E-6 IS=1E-9)
.MODEL DX D(IS=1E-15)
.MODEL DY D(IS=1E-15 BV=50)
.ENDS
**********
*SRC=AD846;AD846;Opamps;AD-"ADxxx";Transimped. 450V/us, w/Comp
*SYM=ADCOMP
* AD846 SPICE Macro-model                   1/91, Rev. A   
*                                           JCB / PMI
*
* Node assignments
*              non-inverting input
*              | inverting input
*              | | positive supply
*              | | |  negative supply
*              | | |  |  output
*              | | |  |  |  compensation pin
*              | | |  |  |  |     
.SUBCKT AD846  1 2 99 50 28 12
*
* INPUT STAGE
*
R1   99  8     1E3
R2   10 50     1E3
V1   99  9     1.7
D1   9   8     DX
V2   11 50     1.7
D2   10 11     DX
I1   99  5     275E-6
I2   4  50     275E-6
Q1   50  3  5  QP
Q2   99  3  4  QN
Q3   8   6 30  QN
Q4   10  7 30  QP
R3   5   6     300E3
R4   4   7     300E3
*
* INPUT ERROR SOURCES
* 
GB1  99  1     POLY(1)  1  22  3E-6    5E-9
GB2  99 30     POLY(1)  1  22  150E-9  5E-9
VOS  3   1     25E-6
LS1  30  2     50E-9
CS1  99  2     2.0E-12
CS2  99  1     2.0E-12
*
EREF 97  0     22  0  1
*
* TRANSCONDUCTANCE STAGE
*
R5   12 97     200E6
C3   12 97     5.5E-12
G1   97 12     99  8  1E-3
G2   12 97     10 50  1E-3
V3   99 13     1.3
V4   14 50     1.3
D3   12 13     DX
D4   14 12     DX
*
* POLE AT 100 MHZ
*
R8  17 97     1E6
C4  17 97     1.59E-15
G4  97 17     12 22  1E-6
*
* POLE AT 100 MHZ
*
R9  18 97     1E6
C5  18 97     1.59E-15
G5  97 18     17 22  1E-6
*
* POLE AT 200 MHZ
*
R10 19 97     1E6
C6  19 97     0.795E-15
G6  97 19     18 22  1E-6
*
* POLE AT 500 MHZ
*
R11 20 97     1E6
C7  20 97     0.318E-15
G7  97 20     19 22  1E-6
*
* POLE AT 500 MHZ
*
R12 21 97     1E6
C8  21 97     0.318E-15
G8  97 21     20 22  1E-6
*
* OUTPUT STAGE
*
ISY 99 50     3.55E-3
R13 22 99     16.67E3
R14 22 50     16.67E3
R15 27 99     60
R16 27 50     60
L2  27 28     1E-8
G9  25 50     21 27  16.67E-3
G10 26 50     27 21  16.67E-3
G11 27 99     99 21  16.67E-3
G12 50 27     21 50  16.67E-3
V5  23 27     1.35
V6  27 24     1.35
D5  21 23     DX
D6  24 21     DX
D7  99 25     DX
D8  99 26     DX
D9  50 25     DY
D10 50 26     DY
*
* MODELS USED
*
.MODEL QN   NPN(BF=1E9 IS=1E-15 VAF=16.3E3)
.MODEL QP   PNP(BF=1E9 IS=1E-15 VAF=16.3E3)
.MODEL DX   D(IS=1E-15)
.MODEL DY   D(IS=1E-15 BV=50)
.ENDS
**********
*SRC=AD846A;AD846A;Opamps;AD-"ADxxx";Transimped. 450V/us, w/Comp
*SYM=ADCOMP
* AD846A SPICE Macro-model                  1/91, Rev. A   
*                                           JCB / PMI
*
* This version of the AD846 model simulates the worst case 
* parameters of the 'A' grade.  The worst case parameters
* used correspond to those in the data sheet.
*
* Node assignments
*              non-inverting input
*              | inverting input
*              | | positive supply
*              | | |  negative supply
*              | | |  |  output
*              | | |  |  |  compensation pin
*              | | |  |  |  |     
.SUBCKT AD846A 1 2 99 50 28 12
*
* INPUT STAGE
*
R1   99  8     1E3
R2   10 50     1E3
V1   99  9     1.7
D1   9   8     DX
V2   11 50     1.7
D2   10 11     DX
I1   99  5     275E-6
I2   4  50     275E-6
Q1   50  3  5  QP
Q2   99  3  4  QN
Q3   8   6 30  QN
Q4   10  7 30  QP
R3   5   6     300E3
R4   4   7     300E3
*
* INPUT ERROR SOURCES
* 
GB1  99  1     POLY(1)  1  22  15E-6   15E-9
GB2  99 30     POLY(1)  1  22  450E-9  10E-9
VOS  3   1     200E-6
LS1  30  2     50E-9
CS1  99  2     2.0E-12
CS2  99  1     2.0E-12
*
EREF 97  0     22  0  1
*
* TRANSCONDUCTANCE STAGE
*
R5   12 97     100E6
C3   12 97     5.5E-12
G1   97 12     99  8  1E-3
G2   12 97     10 50  1E-3
V3   99 13     5.0
V4   14 50     5.0
D3   12 13     DX
D4   14 12     DX
*
* POLE AT 100 MHZ
*
R8  17 97     1E6
C4  17 97     1.59E-15
G4  97 17     12 22  1E-6
*
* POLE AT 100 MHZ
*
R9  18 97     1E6
C5  18 97     1.59E-15
G5  97 18     17 22  1E-6
*
* POLE AT 200 MHZ
*
R10 19 97     1E6
C6  19 97     0.795E-15
G6  97 19     18 22  1E-6
*
* POLE AT 500 MHZ
*
R11 20 97     1E6
C7  20 97     0.318E-15
G7  97 20     19 22  1E-6
*
* POLE AT 500 MHZ
*
R12 21 97     1E6
C8  21 97     0.318E-15
G8  97 21     20 22  1E-6
*
* OUTPUT STAGE
*
ISY 99 50     5.05E-3
R13 22 99     16.67E3
R14 22 50     16.67E3
R15 27 99     60
R16 27 50     60
L2  27 28     1E-8
G9  25 50     21 27  16.67E-3
G10 26 50     27 21  16.67E-3
G11 27 99     99 21  16.67E-3
G12 50 27     21 50  16.67E-3
V5  23 27     1.35
V6  27 24     1.35
D5  21 23     DX
D6  24 21     DX
D7  99 25     DX
D8  99 26     DX
D9  50 25     DY
D10 50 26     DY
*
* MODELS USED
*
.MODEL QN   NPN(BF=1E9 IS=1E-15 VAF=16.3E3)
.MODEL QP   PNP(BF=1E9 IS=1E-15 VAF=16.3E3)
.MODEL DX   D(IS=1E-15)
.MODEL DY   D(IS=1E-15 BV=50)
.ENDS
**********
*SRC=AD846B;AD846B;Opamps;AD-"ADxxx";Transimped. 450V/us, w/Comp
*SYM=ADCOMP
* AD846B SPICE Macro-model                  1/91, Rev. A   
*                                           JCB / PMI
*
* This version of the AD846 model simulates the worst case 
* parameters of the 'B' grade.  The worst case parameters
* used correspond to those in the data sheet.
*
* Node assignments
*              non-inverting input
*              | inverting input
*              | | positive supply
*              | | |  negative supply
*              | | |  |  output
*              | | |  |  |  compensation pin
*              | | |  |  |  |     
.SUBCKT AD846B 1 2 99 50 28 12
*
* INPUT STAGE
*
R1   99  8     1E3
R2   10 50     1E3
V1   99  9     1.7
D1   9   8     DX
V2   11 50     1.7
D2   10 11     DX
I1   99  5     275E-6
I2   4  50     275E-6
Q1   50  3  5  QP
Q2   99  3  4  QN
Q3   8   6 30  QN
Q4   10  7 30  QP
R3   5   6     300E3
R4   4   7     300E3
*
* INPUT ERROR SOURCES
* 
GB1  99  1     POLY(1)  1  22  5E-6    10E-9
GB2  99 30     POLY(1)  1  22  250E-9  5E-9
VOS  3   1     75E-6
LS1  30  2     50E-9
CS1  99  2     2.0E-12
CS2  99  1     2.0E-12
*
EREF 97  0     22  0  1
*
* TRANSCONDUCTANCE STAGE
*
R5   12 97     150E6
C3   12 97     5.5E-12
G1   97 12     99  8  1E-3
G2   12 97     10 50  1E-3
V3   99 13     5.0
V4   14 50     5.0
D3   12 13     DX
D4   14 12     DX
*
* POLE AT 100 MHZ
*
R8  17 97     1E6
C4  17 97     1.59E-15
G4  97 17     12 22  1E-6
*
* POLE AT 100 MHZ
*
R9  18 97     1E6
C5  18 97     1.59E-15
G5  97 18     17 22  1E-6
*
* POLE AT 200 MHZ
*
R10 19 97     1E6
C6  19 97     0.795E-15
G6  97 19     18 22  1E-6
*
* POLE AT 500 MHZ
*
R11 20 97     1E6
C7  20 97     0.318E-15
G7  97 20     19 22  1E-6
*
* POLE AT 500 MHZ
*
R12 21 97     1E6
C8  21 97     0.318E-15
G8  97 21     20 22  1E-6
*
* OUTPUT STAGE
*
ISY 99 50     5.05E-3
R13 22 99     16.67E3
R14 22 50     16.67E3
R15 27 99     60
R16 27 50     60
L2  27 28     1E-8
G9  25 50     21 27  16.67E-3
G10 26 50     27 21  16.67E-3
G11 27 99     99 21  16.67E-3
G12 50 27     21 50  16.67E-3
V5  23 27     1.35
V6  27 24     1.35
D5  21 23     DX
D6  24 21     DX
D7  99 25     DX
D8  99 26     DX
D9  50 25     DY
D10 50 26     DY
*
* MODELS USED
*
.MODEL QN   NPN(BF=1E9 IS=1E-15 VAF=16.3E3)
.MODEL QP   PNP(BF=1E9 IS=1E-15 VAF=16.3E3)
.MODEL DX   D(IS=1E-15)
.MODEL DY   D(IS=1E-15 BV=50)
.ENDS
**********
*SRC=AD846S;AD846S;Opamps;AD-"ADxxx";Transimped. 450V/us, w/Comp
*SYM=ADCOMP
* AD846S SPICE Macro-model                  1/91, Rev. A   
*                                           JCB / PMI
*
* This version of the AD846 model simulates the worst case 
* parameters of the 'S' grade.  The worst case parameters
* used correspond to those in the data sheet.
*
* Node assignments
*              non-inverting input
*              | inverting input
*              | | positive supply
*              | | |  negative supply
*              | | |  |  output
*              | | |  |  |  compensation pin
*              | | |  |  |  |     
.SUBCKT AD846S 1 2 99 50 28 12
*
* INPUT STAGE
*
R1   99  8     1E3
R2   10 50     1E3
V1   99  9     1.7
D1   9   8     DX
V2   11 50     1.7
D2   10 11     DX
I1   99  5     275E-6
I2   4  50     275E-6
Q1   50  3  5  QP
Q2   99  3  4  QN
Q3   8   6 30  QN
Q4   10  7 30  QP
R3   5   6     300E3
R4   4   7     300E3
*
* INPUT ERROR SOURCES
* 
GB1  99  1     POLY(1)  1  22  15E-6   15E-9
GB2  99 30     POLY(1)  1  22  450E-9  10E-9
VOS  3   1     200E-6
LS1  30  2     50E-9
CS1  99  2     2.0E-12
CS2  99  1     2.0E-12
*
EREF 97  0     22  0  1
*
* TRANSCONDUCTANCE STAGE
*
R5   12 97     100E6
C3   12 97     5.5E-12
G1   97 12     99  8  1E-3
G2   12 97     10 50  1E-3
V3   99 13     5.0
V4   14 50     5.0
D3   12 13     DX
D4   14 12     DX
*
* POLE AT 100 MHZ
*
R8  17 97     1E6
C4  17 97     1.59E-15
G4  97 17     12 22  1E-6
*
* POLE AT 100 MHZ
*
R9  18 97     1E6
C5  18 97     1.59E-15
G5  97 18     17 22  1E-6
*
* POLE AT 200 MHZ
*
R10 19 97     1E6
C6  19 97     0.795E-15
G6  97 19     18 22  1E-6
*
* POLE AT 500 MHZ
*
R11 20 97     1E6
C7  20 97     0.318E-15
G7  97 20     19 22  1E-6
*
* POLE AT 500 MHZ
*
R12 21 97     1E6
C8  21 97     0.318E-15
G8  97 21     20 22  1E-6
*
* OUTPUT STAGE
*
ISY 99 50     5.55E-3
R13 22 99     16.67E3
R14 22 50     16.67E3
R15 27 99     60
R16 27 50     60
L2  27 28     1E-8
G9  25 50     21 27  16.67E-3
G10 26 50     27 21  16.67E-3
G11 27 99     99 21  16.67E-3
G12 50 27     21 50  16.67E-3
V5  23 27     1.35
V6  27 24     1.35
D5  21 23     DX
D6  24 21     DX
D7  99 25     DX
D8  99 26     DX
D9  50 25     DY
D10 50 26     DY
*
* MODELS USED
*
.MODEL QN   NPN(BF=1E9 IS=1E-15 VAF=16.3E3)
.MODEL QP   PNP(BF=1E9 IS=1E-15 VAF=16.3E3)
.MODEL DX   D(IS=1E-15)
.MODEL DY   D(IS=1E-15 BV=50)
.ENDS
**********
*SRC=AD847;AD847;Opamps;AD-"ADxxx";High Speed, Low Power
*SYM=ADOPAMP
* AD847 SPICE Macro-model                   12/90, Rev. A
*                                           JCB / PMI
*
* Node assignments
*               non-inverting input
*               | inverting input
*               | | positive supply
*               | | |  negative supply
*               | | |  |  output
*               | | |  |  |
*               | | |  |  |
.SUBCKT AD847   1 2 99 50 30
*
* INPUT STAGE & POLE AT 300 MHZ
*
R1   2  3     5E11
R2   1  3     5E11
R3   5 99     443
R4   6 99     443
CIN  1  2     1.5E-12
C2   5  6     0.599E-12
I1   4  50    2.22E-3
IOS  1  2     25E-9
EOS  9  1     POLY(1)  19 23  0.5E-3  1
Q1   5  2 10  QX
Q2   6  9 11  QX
R5   10 4     419.8
R6   11 4     419.8
*
EREF 98 0     23  0  1
*
* GAIN STAGE & DOMINANT POLE AT 8.8 KHZ
*
R7  12 98     2.44E6
C3  12 98     7.4E-12
G1  98 12     5  6  2.25E-3
V2  99 13     0.8
V3  14 50     0.8
D3  12 13     DX
D4  14 12     DX
*
* ZERO/POLE PAIR AT 70MHz/200MHz
*
R8  15 16     1E6
R9  16 98     1.86E6
L1  16 98     1.48E-3
G2  98 15     12 23  1E-6
*
* POLE AT 300 MHZ
*
R41 41 98     1E6
C41 41 98     531E-18
G41 98 41     15 23  1E-6
*
* POLE AT 300 MHZ
*
R42 42 98     1E6
C42 42 98     531E-18
G42 98 42     41 23  1E-6
*
* POLE AT 400 MHZ
*
R43 43 98     1E6
C43 43 98     398E-18
G43 98 43     42 23  1E-6
*
* COMMON-MODE GAIN NETWORK WITH ZERO AT 40 kHZ
*
R11 18 19     1E6
C6  18 19     3.98E-12
R12 19 98     1
E2  18 98     3  23  17.8
*
* POLE AT 400 MHZ
*
R15 22 98     1E6
C8  22 98     398E-18
G3  98 22     43 23  1E-6
*
* OUTPUT STAGE
*
RF  30 60     500
CF  60 12     12.5E-12
R16 23 99     100E3
R17 23 50     100E3
ISY 99 50     2.95E-3
R18 25 99     90
R19 25 50     90
L2  25 30     3E-8
G4  28 50     22 25  11.11E-3
G5  29 50     25 22  11.11E-3
G6  25 99     99 22  11.11E-3
G7  50 25     22 50  11.11E-3
V4  26 25     0.8
V5  25 27     0.8
D5  22 26     DX
D6  27 22     DX
D7  99 28     DX
D8  99 29     DX
D9  50 28     DY
D10 50 29     DY
*
* MODELS USED
*
.MODEL QX NPN(BF=336)
.MODEL DX   D(IS=1E-15)
.MODEL DY   D(IS=1E-15 BV=50)
.ENDS
**********
*SRC=AD847A;AD847A;Opamps;AD-"ADxxx";High Speed, Low Power
*SYM=ADOPAMP
* AD847A SPICE Macro-model                   12/90, Rev. A
*                                            JCB / PMI
*
* This version of the AD847 model simulates the worst case 
* parameters of the 'A' grade.  The worst case parameters
* used correspond to those in the data sheet.
*
* Node assignments
*               non-inverting input
*               | inverting input
*               | | positive supply
*               | | |  negative supply
*               | | |  |  output
*               | | |  |  |
*               | | |  |  |
.SUBCKT AD847A  1 2 99 50 30
*
* INPUT STAGE & POLE AT 300 MHZ
*
R1   2  3     5E11
R2   1  3     5E11
R3   5 99     813
R4   6 99     813
CIN  1  2     1.5E-12
C2   5  6     326E-15
I1   4  50    908E-6
IOS  1  2     150E-9
EOS  9  1     POLY(1)  19 23  1.0E-3  1
Q1   5  2 10  QX
Q2   6  9 11  QX
R5   10 4     756
R6   11 4     756
*
EREF 98 0     23  0  1
*
* GAIN STAGE & DOMINANT POLE AT 16.2 KHZ
*
R7  12 98     2.44E6
C3  12 98     4.036E-12
G1  98 12     5  6  1.230E-3
V2  99 13     3.1
V3  14 50     3.1
D3  12 13     DX
D4  14 12     DX
*
* ZERO/POLE PAIR AT 70MHz/200MHz
*
R8  15 16     1E6
R9  16 98     1.86E6
L1  16 98     1.48E-3
G2  98 15     12 23  1E-6
*
* POLE AT 300 MHZ
*
R41 41 98     1E6
C41 41 98     531E-18
G41 98 41     15 23  1E-6
*
* POLE AT 300 MHZ
*
R42 42 98     1E6
C42 42 98     531E-18
G42 98 42     41 23  1E-6
*
* POLE AT 400 MHZ
*
R43 43 98     1E6
C43 43 98     398E-18
G43 98 43     42 23  1E-6
*