**********
*SRC=OP21A;OP21A;Opamps;AD-"OPxxx";Low Power, 230uA Isup. max.
*SYM=ADOPAMP
* OP21 SPICE Macro-model                   9/91, Rev. A
*                                           JCB / PMI
*
* Node assignments
*                non-inverting input
*                | inverting input
*                | | positive supply
*                | | |  negative supply
*                | | |  |  output
*                | | |  |  |
.SUBCKT OP21A    1 2 99 50 31
*
* INPUT STAGE & POLE AT 2.8 MEGHZ
*
R1    2  3     5E11
R2    1  3     5E11
R3    5 50     6.29E3
R4    6 50     6.29E3
R5    4  7     1.13E3
R6    4  8     1.13E3
CIN   1  2     2E-12
C2    5  6     4.52E-12
I1    99 4     10E-6
IOS   1  2     0.3E-9
EOS   9  1     POLY(1)  24 27  40E-6  1
Q1    5  2  7  QX
Q2    6  9  8  QX
EREF  98 0    27  0  1
*
* GAIN STAGE & DOMINANT POLE AT 0.316 HZ
*
R7   10 98     12.582E9
G1   98 10     5  6  158.95E-6
C3   10 98     40E-12
D1   10 11     DX
D2   12 10     DX
V1   99 11     1.07
V2   12 50     0.97
*
* POLE AT 3.0 MEGHZ
*
R10  16 98     1E6
C5   16 98     53.1E-15
G3   98 16     10 27  1E-6
*
* POLE AT 3.0 MEGHZ
*
R16  17 98     1E6
C7   17 98     53.1E-15
G10  98 17     16 27  1E-6
*
* COMMON-MODE GAIN NETWORK WITH ZERO AT 10 HZ
*
R8   24 98     1
R9   23 24     1E6
C4   23 24     15.92E-9
E4   98 23     3  27  3.16
*
* POLE AT 3.0 MEGHZ
*
R15  25 98     1E6
C6   25 98     53.1E-15
G9   98 25     17 27  1E-6
*
* OUTPUT STAGE
*
ISY  99 50     148E-6
R11  27 99     208E3
R12  27 50     208E3
R13  30 99     450
R14  30 50     450
L1   30 31     1E-8
G4   28 50     25 30  2.222E-3
G5   29 50     30 25  2.222E-3
G6   30 99     99 25  2.222E-3
G7   50 30     25 50  2.222E-3
D5   99 28     DX
D6   99 29     DX
D7   50 28     DY
D8   50 29     DY
D9   25 33     DX
V3   33 30     0.75
D10  32 25     DX
V4   30 32     0.3
*
* MODELS USED
*
.MODEL QX PNP(BF=100)
.MODEL DX   D(IS=1E-15)
.MODEL DY   D(IS=1E-15 BV=50)
.ENDS
**********
*SRC=OP21AA;OP21AA;Opamps;AD-"OPxxx";Low Power, 230uA Isup. max.
*SYM=ADOPAMP
* OP21A SPICE Macro-model                  9/91, Rev. A
*                                           JCB / PMI
*
* This version of the OP21 model simulates the worst case
* parameters of the 'A' grade.  The worst case parameters
* used correspond to those in the data sheet.
*
*
* Node assignments
*                non-inverting input
*                | inverting input
*                | | positive supply
*                | | |  negative supply
*                | | |  |  output
*                | | |  |  |
.SUBCKT OP21AA   1 2 99 50 31
*
* INPUT STAGE & POLE AT 2.8 MEGHZ
*
R1    2  3     5E11
R2    1  3     5E11
R3    5 50     6.29E3
R4    6 50     6.29E3
R5    4  7     1.13E3
R6    4  8     1.13E3
CIN   1  2     2E-12
C2    5  6     4.52E-12
I1    99 4     10E-6
IOS   1  2     2E-9
EOS   9  1     POLY(1)  24 27  100E-6  1
Q1    5  2  7  QX
Q2    6  9  8  QX
EREF  98 0    27  0  1
*
* GAIN STAGE & DOMINANT POLE AT 0.63 HZ
*
R7   10 98     6.291E9
G1   98 10     5  6  158.95E-6
C3   10 98     40E-12
D1   10 11     DX
D2   12 10     DX
V1   99 11     1.27
V2   12 50     1.57
*
* POLE AT 3.0 MEGHZ
*
R10  16 98     1E6
C5   16 98     53.1E-15
G3   98 16     10 27  1E-6
*
* POLE AT 3.0 MEGHZ
*
R16  17 98     1E6
C7   17 98     53.1E-15
G10  98 17     16 27  1E-6
*
* COMMON-MODE GAIN NETWORK WITH ZERO AT 31.6 HZ
*
R8   24 98     1
R9   23 24     1E6
C4   23 24     5.04E-9
E4   98 23     3  27  10
*
* POLE AT 3.0 MEGHZ
*
R15  25 98     1E6
C6   25 98     53.1E-15
G9   98 25     17 27  1E-6
*
* OUTPUT STAGE
*
ISY  99 50     206E-6
R11  27 99     179E3
R12  27 50     179E3
R13  30 99     450
R14  30 50     450
L1   30 31     1E-8
G4   28 50     25 30  2.222E-3
G5   29 50     30 25  2.222E-3
G6   30 99     99 25  2.222E-3
G7   50 30     25 50  2.222E-3
D5   99 28     DX
D6   99 29     DX
D7   50 28     DY
D8   50 29     DY
D9   25 33     DX
V3   33 30     0.75
D10  32 25     DX
V4   30 32     0.3
*
* MODELS USED
*
.MODEL QX PNP(BF=50)
.MODEL DX   D(IS=1E-15)
.MODEL DY   D(IS=1E-15 BV=50)
.ENDS
**********
*SRC=OP21EA;OP21EA;Opamps;AD-"OPxxx";Low Power, 230uA Isup. max.
*SYM=ADOPAMP
* OP21E SPICE Macro-model                  9/91, Rev. A
*                                           JCB / PMI
*
* This version of the OP21 model simulates the worst case
* parameters of the 'E' grade.  The worst case parameters
* used correspond to those in the data sheet.
*
*
* Node assignments
*                non-inverting input
*                | inverting input
*                | | positive supply
*                | | |  negative supply
*                | | |  |  output
*                | | |  |  |
.SUBCKT OP21EA   1 2 99 50 31
*
* INPUT STAGE & POLE AT 2.8 MEGHZ
*
R1    2  3     5E11
R2    1  3     5E11
R3    5 50     6.29E3
R4    6 50     6.29E3
R5    4  7     1.13E3
R6    4  8     1.13E3
CIN   1  2     2E-12
C2    5  6     4.52E-12
I1    99 4     10E-6
IOS   1  2     2E-9
EOS   9  1     POLY(1)  24 27  100E-6  1
Q1    5  2  7  QX
Q2    6  9  8  QX
EREF  98 0    27  0  1
*
* GAIN STAGE & DOMINANT POLE AT 0.63 HZ
*
R7   10 98     6.291E9
G1   98 10     5  6  158.95E-6
C3   10 98     40E-12
D1   10 11     DX
D2   12 10     DX
V1   99 11     1.27
V2   12 50     1.57
*
* POLE AT 3.0 MEGHZ
*
R10  16 98     1E6
C5   16 98     53.1E-15
G3   98 16     10 27  1E-6
*
* POLE AT 3.0 MEGHZ
*
R16  17 98     1E6
C7   17 98     53.1E-15
G10  98 17     16 27  1E-6
*
* COMMON-MODE GAIN NETWORK WITH ZERO AT 31.6 HZ
*
R8   24 98     1
R9   23 24     1E6
C4   23 24     5.04E-9
E4   98 23     3  27  10
*
* POLE AT 3.0 MEGHZ
*
R15  25 98     1E6
C6   25 98     53.1E-15
G9   98 25     17 27  1E-6
*
* OUTPUT STAGE
*
ISY  99 50     206E-6
R11  27 99     179E3
R12  27 50     179E3
R13  30 99     450
R14  30 50     450
L1   30 31     1E-8
G4   28 50     25 30  2.222E-3
G5   29 50     30 25  2.222E-3
G6   30 99     99 25  2.222E-3
G7   50 30     25 50  2.222E-3
D5   99 28     DX
D6   99 29     DX
D7   50 28     DY
D8   50 29     DY
D9   25 33     DX
V3   33 30     0.75
D10  32 25     DX
V4   30 32     0.3
*
* MODELS USED
*
.MODEL QX PNP(BF=50)
.MODEL DX   D(IS=1E-15)
.MODEL DY   D(IS=1E-15 BV=50)
.ENDS
**********
*SRC=OP21FA;OP21FA;Opamps;AD-"OPxxx";Low Power, 230uA Isup. max.
*SYM=ADOPAMP
* OP21F SPICE Macro-model                  9/91, Rev. A
*                                           JCB / PMI
*
* This version of the OP21 model simulates the worst case
* parameters of the 'F' grade.  The worst case parameters
* used correspond to those in the data sheet.
*
*
* Node assignments
*                non-inverting input
*                | inverting input
*                | | positive supply
*                | | |  negative supply
*                | | |  |  output
*                | | |  |  |
.SUBCKT OP21FA   1 2 99 50 31
*
* INPUT STAGE & POLE AT 2.8 MEGHZ
*
R1    2  3     5E11
R2    1  3     5E11
R3    5 50     6.29E3
R4    6 50     6.29E3
R5    4  7     1.13E3
R6    4  8     1.13E3
CIN   1  2     2E-12
C2    5  6     4.52E-12
I1    99 4     10E-6
IOS   1  2     2.5E-9
EOS   9  1     POLY(1)  24 27  200E-6  1
Q1    5  2  7  QX
Q2    6  9  8  QX
EREF  98 0    27  0  1
*
* GAIN STAGE & DOMINANT POLE AT 1.26 HZ
*
R7   10 98     3.146E9
G1   98 10     5  6  158.95E-6
C3   10 98     40E-12
D1   10 11     DX
D2   12 10     DX
V1   99 11     1.37
V2   12 50     1.57
*
* POLE AT 3.0 MEGHZ
*
R10  16 98     1E6
C5   16 98     53.1E-15
G3   98 16     10 27  1E-6
*
* POLE AT 3.0 MEGHZ
*
R16  17 98     1E6
C7   17 98     53.1E-15
G10  98 17     16 27  1E-6
*
* COMMON-MODE GAIN NETWORK WITH ZERO AT 100 HZ
*
R8   24 98     1
R9   23 24     1E6
C4   23 24     1.59E-9
E4   98 23     3  27  31.6
*
* POLE AT 3.0 MEGHZ
*
R15  25 98     1E6
C6   25 98     53.1E-15
G9   98 25     17 27  1E-6
*
* OUTPUT STAGE
*
ISY  99 50     248E-6
R11  27 99     147E3
R12  27 50     147E3
R13  30 99     450
R14  30 50     450
L1   30 31     1E-8
G4   28 50     25 30  2.222E-3
G5   29 50     30 25  2.222E-3
G6   30 99     99 25  2.222E-3
G7   50 30     25 50  2.222E-3
D5   99 28     DX
D6   99 29     DX
D7   50 28     DY
D8   50 29     DY
D9   25 33     DX
V3   33 30     0.75
D10  32 25     DX
V4   30 32     0.3
*
* MODELS USED
*
.MODEL QX PNP(BF=41.667)
.MODEL DX   D(IS=1E-15)
.MODEL DY   D(IS=1E-15 BV=50)
.ENDS
**********
*SRC=OP21GA;OP21GA;Opamps;AD-"OPxxx";Low Power, 230uA Isup. max.
*SYM=ADOPAMP
* OP21G SPICE Macro-model                  9/91, Rev. A
*                                           JCB / PMI
*
* This version of the OP21 model simulates the worst case
* parameters of the 'G' grade.  The worst case parameters
* used correspond to those in the data sheet.
*
*
* Node assignments
*                non-inverting input
*                | inverting input
*                | | positive supply
*                | | |  negative supply
*                | | |  |  output
*                | | |  |  |
.SUBCKT OP21GA   1 2 99 50 31
*
* INPUT STAGE & POLE AT 2.8 MEGHZ
*
R1    2  3     5E11
R2    1  3     5E11
R3    5 50     6.29E3
R4    6 50     6.29E3
R5    4  7     1.13E3
R6    4  8     1.13E3
CIN   1  2     2E-12
C2    5  6     4.52E-12
I1    99 4     10E-6
IOS   1  2     3E-9
EOS   9  1     POLY(1)  24 27  500E-6  1
Q1    5  2  7  QX
Q2    6  9  8  QX
EREF  98 0    27  0  1
*
* GAIN STAGE & DOMINANT POLE AT 1.26 HZ
*
R7   10 98     3.146E9
G1   98 10     5  6  158.95E-6
C3   10 98     40E-12
D1   10 11     DX
D2   12 10     DX
V1   99 11     1.47
V2   12 50     1.67
*
* POLE AT 3.0 MEGHZ
*
R10  16 98     1E6
C5   16 98     53.1E-15
G3   98 16     10 27  1E-6
*
* POLE AT 3.0 MEGHZ
*
R16  17 98     1E6
C7   17 98     53.1E-15
G10  98 17     16 27  1E-6
*
* COMMON-MODE GAIN NETWORK WITH ZERO AT 200 HZ
*
R8   24 98     1
R9   23 24     1E6
C4   23 24     0.796E-9
E4   98 23     3  27  63.1
*
* POLE AT 3.0 MEGHZ
*
R15  25 98     1E6
C6   25 98     53.1E-15
G9   98 25     17 27  1E-6
*
* OUTPUT STAGE
*
ISY  99 50     266E-6
R11  27 99     104E3
R12  27 50     104E3
R13  30 99     450
R14  30 50     450
L1   30 31     1E-8
G4   28 50     25 30  2.222E-3
G5   29 50     30 25  2.222E-3
G6   30 99     99 25  2.222E-3
G7   50 30     25 50  2.222E-3
D5   99 28     DX
D6   99 29     DX
D7   50 28     DY
D8   50 29     DY
D9   25 33     DX
V3   33 30     0.75
D10  32 25     DX
V4   30 32     0.3
*
* MODELS USED
*
.MODEL QX PNP(BF=33.333)
.MODEL DX   D(IS=1E-15)
.MODEL DY   D(IS=1E-15 BV=50)
.ENDS
**********
*SRC=OP21HA;OP21HA;Opamps;AD-"OPxxx";Low Power, 230uA Isup. max.
*SYM=ADOPAMP
* OP21H SPICE Macro-model                  9/91, Rev. A
*                                           JCB / PMI
*
* This version of the OP21 model simulates the worst case
* parameters of the 'H' grade.  The worst case parameters
* used correspond to those in the data sheet.
*
*
* Node assignments
*                non-inverting input
*                | inverting input
*                | | positive supply
*                | | |  negative supply
*                | | |  |  output
*                | | |  |  |
.SUBCKT OP21HA   1 2 99 50 31
*
* INPUT STAGE & POLE AT 2.8 MEGHZ
*
R1    2  3     5E11
R2    1  3     5E11
R3    5 50     6.29E3
R4    6 50     6.29E3
R5    4  7     1.13E3
R6    4  8     1.13E3
CIN   1  2     2E-12
C2    5  6     4.52E-12
I1    99 4     10E-6
IOS   1  2     3E-9
EOS   9  1     POLY(1)  24 27  500E-6  1
Q1    5  2  7  QX
Q2    6  9  8  QX
EREF  98 0    27  0  1
*
* GAIN STAGE & DOMINANT POLE AT 1.26 HZ
*
R7   10 98     3.146E9
G1   98 10     5  6  158.95E-6
C3   10 98     40E-12
D1   10 11     DX
D2   12 10     DX
V1   99 11     1.47
V2   12 50     1.67
*
* POLE AT 3.0 MEGHZ
*
R10  16 98     1E6
C5   16 98     53.1E-15
G3   98 16     10 27  1E-6
*
* POLE AT 3.0 MEGHZ
*
R16  17 98     1E6
C7   17 98     53.1E-15
G10  98 17     16 27  1E-6
*
* COMMON-MODE GAIN NETWORK WITH ZERO AT 200 HZ
*
R8   24 98     1
R9   23 24     1E6
C4   23 24     0.796E-9
E4   98 23     3  27  63.1
*
* POLE AT 3.0 MEGHZ
*
R15  25 98     1E6
C6   25 98     53.1E-15
G9   98 25     17 27  1E-6
*
* OUTPUT STAGE
*
ISY  99 50     266E-6
R11  27 99     104E3
R12  27 50     104E3
R13  30 99     450
R14  30 50     450
L1   30 31     1E-8
G4   28 50     25 30  2.222E-3
G5   29 50     30 25  2.222E-3
G6   30 99     99 25  2.222E-3
G7   50 30     25 50  2.222E-3
D5   99 28     DX
D6   99 29     DX
D7   50 28     DY
D8   50 29     DY
D9   25 33     DX
V3   33 30     0.75
D10  32 25     DX
V4   30 32     0.3
*
* MODELS USED
*
.MODEL QX PNP(BF=33.333)
.MODEL DX   D(IS=1E-15)
.MODEL DY   D(IS=1E-15 BV=50)
.ENDS
**********
*SRC=OP220A;OP220A;Opamps;AD-"OPxxx";Micropower, 150uA Isup. max.
*SYM=ADOPAMP
* OP220 SPICE Macro-model                  9/91, Rev. A
*                                           JCB / PMI
*
* Node assignments
*              non-inverting input
*              | inverting input
*              | | positive supply
*              | | |  negative supply
*              | | |  |  output
*              | | |  |  |
.SUBCKT OP220A 1 2 99 50 30
*
* INPUT STAGE & POLE AT 1.5 MEGHZ
*
R1    2  3     5E11
R2    1  3     5E11
R3    5 50     5.16K
R4    6 50     5.16K
CIN   1  2     4E-12
C2    5  6     15.42E-12
I1    99 4     10UA
IOS   1  2     0.075E-9
EOS   9  1     POLY(1)  24 27  120E-6  1
Q1    5  2  4  QX
Q2    6  9  4  QX
*
EREF  98 0    27  0  1
*
* FIRST GAIN STAGE
*
R5   10 98     1E6
G1   98 10     5  6  50.27E-6
D1   10 11     DX
D2   12 10     DX
E1   99 11     POLY(1) 99 27 -1.475 1
E2   12 50     POLY(1) 27 50 -1.475 1
*
* GAIN STAGE & DOMINANT POLE AT 0.1 HZ
*
R6   13 98     7.96E9
C3   13 98     200E-12
G2   98 13     10 27  5E-6
V1   99 14     0.73
V2   15 50     0.73
D3   13 14     DX
D4   15 13     DX
*
* COMMON-MODE GAIN NETWORK WITH ZERO AT 200 HZ
*
R7   24 98     1
R8   23 24     1E6
C4   23 24     0.796E-9
E4   98 23     3  27  10
*
* POLE AT 600 KHZ
*
R9   25 98     1E6
C5   25 98     265E-15
G3   98 25     13 27  1E-6
*
* OUTPUT STAGE
*
ISY  99 50     33.6E-6
R10  27 99     568E3
R11  27 50     568E3
R12  30 99     2000
R13  30 50     2000
G4   28 50     25 30  0.5E-3
G5   29 50     30 25  0.5E-3
G6   30 99     99 25  0.5E-3
G7   50 30     25 50  0.5E-3
D5   99 28     DX
D6   99 29     DX
D7   50 28     DY
D8   50 29     DY
D9   25 31     DX
V3   31 30     1.9
D10  32 25     DX
V4   30 32     0.8
*
* MODELS USED
*
.MODEL QX PNP(BF=416.667)
.MODEL DX   D(IS=1E-15)
.MODEL DY   D(IS=1E-15 BV=50)
.ENDS
**********
*SRC=OP220AA;OP220AA;Opamps;AD-"OPxxx";Micropower, 150uA Isup. max.
*SYM=ADOPAMP
* OP220A SPICE Macro-model                 9/91, Rev. A
*                                           JCB / PMI
*
* This version of the OP220 model simulates the worst case 
* parameters of the 'A' grade.  The worst case parameters
* used correspond to those in the data sheet.
*
* Node assignments
*               non-inverting input
*               | inverting input
*               | | positive supply
*               | | |  negative supply
*               | | |  |  output
*               | | |  |  |
.SUBCKT OP220AA 1 2 99 50 30
*
* INPUT STAGE & POLE AT 1.5 MEGHZ
*
R1    2  3     5E11
R2    1  3     5E11
R3    5 50     5.16K
R4    6 50     5.16K
CIN   1  2     4E-12
C2    5  6     15.42E-12
I1    99 4     10UA
IOS   1  2     0.75E-9
EOS   9  1     POLY(1)  24 27  150E-6  1
Q1    5  2  4  QX
Q2    6  9  4  QX
*
EREF  98 0    27  0  1
*
* FIRST GAIN STAGE
*
R5   10 98     1E6
G1   98 10     5  6  50.27E-6
D1   10 11     DX
D2   12 10     DX
E1   99 11     POLY(1) 99 27 -1.475 1
E2   12 50     POLY(1) 27 50 -1.475 1
*
* GAIN STAGE & DOMINANT POLE AT 0.2 HZ
*
R6   13 98     3.98E9
C3   13 98     200E-12
G2   98 13     10 27  5E-6
V1   99 14     1.0
V2   15 50     1.0
D3   13 14     DX
D4   15 13     DX
*
* COMMON-MODE GAIN NETWORK WITH ZERO AT 356 HZ
*
R7   24 98     1
R8   23 24     1E6
C4   23 24     0.447E-9
E4   98 23     3  27  17.8
*
* POLE AT 600 KHZ
*
R9   25 98     1E6
C5   25 98     265E-15
G3   98 25     13 27  1E-6
*
* OUTPUT STAGE
*
ISY  99 50     48.6E-6
R10  27 99     568E3
R11  27 50     568E3
R12  30 99     2000
R13  30 50     2000
G4   28 50     25 30  0.5E-3
G5   29 50     30 25  0.5E-3
G6   30 99     99 25  0.5E-3
G7   50 30     25 50  0.5E-3
D5   99 28     DX
D6   99 29     DX
D7   50 28     DY
D8   50 29     DY
D9   25 31     DX
V3   31 30     3.1
D10  32 25     DX
V4   30 32     0.5
*
* MODELS USED
*
.MODEL QX PNP(BF=250)
.MODEL DX   D(IS=1E-15)
.MODEL DY   D(IS=1E-15 BV=50)
.ENDS
**********
*SRC=OP220CA;OP220CA;Opamps;AD-"OPxxx";Micropower, 150uA Isup. max.
*SYM=ADOPAMP
* OP220C SPICE Macro-model                 4/91, Rev. A
*                                           JCB / PMI
*
* This version of the OP220 model simulates the worst case 
* parameters of the 'C' grade.  The worst case parameters
* used correspond to those in the data sheet.
*
* Node assignments
*               non-inverting input
*               | inverting input
*               | | positive supply
*               | | |  negative supply
*               | | |  |  output
*               | | |  |  |
.SUBCKT OP220CA 1 2 99 50 30
*
* INPUT STAGE & POLE AT 1.5 MEGHZ
*
R1    2  3     5E11
R2    1  3     5E11
R3    5 50     5.16K
R4    6 50     5.16K
CIN   1  2     4E-12
C2    5  6     15.42E-12
I1    99 4     10UA
IOS   1  2     1.75E-9
EOS   9  1     POLY(1)  24 27  750E-6  1
Q1    5  2  4  QX
Q2    6  9  4  QX
*
EREF  98 0    27  0  1
*
* FIRST GAIN STAGE
*
R5   10 98     1E6
G1   98 10     5  6  50.27E-6
D1   10 11     DX
D2   12 10     DX
E1   99 11     POLY(1) 99 27 -1.475 1
E2   12 50     POLY(1) 27 50 -1.475 1
*
* GAIN STAGE & DOMINANT POLE AT 0.25 HZ
*
R6   13 98     3.18E9
C3   13 98     200E-12
G2   98 13     10 27  5E-6
V1   99 14     1.0
V2   15 50     1.0
D3   13 14     DX
D4   15 13     DX
*
* COMMON-MODE GAIN NETWORK WITH ZERO AT 2000 HZ
*
R7   24 98     1
R8   23 24     1E6
C4   23 24     0.0796E-9
E4   98 23     3  27  100
*
* POLE AT 600 KHZ
*
R9   25 98     1E6
C5   25 98     265E-15
G3   98 25     13 27  1E-6
*
* OUTPUT STAGE
*
ISY  99 50     73.6E-6
R10  27 99     568E3
R11  27 50     568E3
R12  30 99     2000
R13  30 50     2000
G4   28 50     25 30  0.5E-3
G5   29 50     30 25  0.5E-3
G6   30 99     99 25  0.5E-3
G7   50 30     25 50  0.5E-3
D5   99 28     DX
D6   99 29     DX
D7   50 28     DY
D8   50 29     DY
D9   25 31     DX
V3   31 30     3.1
D10  32 25     DX
V4   30 32     0.5
*
* MODELS USED
*
.MODEL QX PNP(BF=167)
.MODEL DX   D(IS=1E-15)
.MODEL DY   D(IS=1E-15 BV=50)
.ENDS
**********
*SRC=OP220EA;OP220EA;Opamps;AD-"OPxxx";Micropower, 150uA Isup. max.
*SYM=ADOPAMP
* OP220E SPICE Macro-model                 9/91, Rev. A
*                                           JCB / PMI
*
* This version of the OP220 model simulates the worst case 
* parameters of the 'E' grade.  The worst case parameters
* used correspond to those in the data sheet.
*
* Node assignments
*               non-inverting input
*               | inverting input
*               | | positive supply
*               | | |  negative supply
*               | | |  |  output
*               | | |  |  |
.SUBCKT OP220EA 1 2 99 50 30
*
* INPUT STAGE & POLE AT 1.5 MEGHZ
*
R1    2  3     5E11
R2    1  3     5E11
R3    5 50     5.16K
R4    6 50     5.16K
CIN   1  2     4E-12
C2    5  6     15.42E-12
I1    99 4     10UA
IOS   1  2     0.75E-9
EOS   9  1     POLY(1)  24 27  150E-6  1
Q1    5  2  4  QX
Q2    6  9  4  QX
*
EREF  98 0    27  0  1
*
* FIRST GAIN STAGE
*
R5   10 98     1E6
G1   98 10     5  6  50.27E-6
D1   10 11     DX
D2   12 10     DX
E1   99 11     POLY(1) 99 27 -1.475 1
E2   12 50     POLY(1) 27 50 -1.475 1
*
* GAIN STAGE & DOMINANT POLE AT 0.2 HZ
*
R6   13 98     3.98E9
C3   13 98     200E-12
G2   98 13     10 27  5E-6
V1   99 14     1.0
V2   15 50     1.0
D3   13 14     DX
D4   15 13     DX
*
* COMMON-MODE GAIN NETWORK WITH ZERO AT 356 HZ
*
R7   24 98     1
R8   23 24     1E6
C4   23 24     0.447E-9
E4   98 23     3  27  17.8
*
* POLE AT 600 KHZ
*
R9   25 98     1E6
C5   25 98     265E-15
G3   98 25     13 27  1E-6
*
* OUTPUT STAGE
*
ISY  99 50     48.6E-6
R10  27 99     568E3
R11  27 50     568E3
R12  30 99     2000
R13  30 50     2000
G4   28 50     25 30  0.5E-3
G5   29 50     30 25  0.5E-3
G6   30 99     99 25  0.5E-3
G7   50 30     25 50  0.5E-3
D5   99 28     DX
D6   99 29     DX
D7   50 28     DY
D8   50 29     DY
D9   25 31     DX
V3   31 30     3.1
D10  32 25     DX
V4   30 32     0.5
*
* MODELS USED
*
.MODEL QX PNP(BF=250)
.MODEL DX   D(IS=1E-15)
.MODEL DY   D(IS=1E-15 BV=50)
.ENDS
**********
*SRC=OP220FA;OP220FA;Opamps;AD-"OPxxx";Micropower, 150uA Isup. max.
*SYM=ADOPAMP
* OP220F SPICE Macro-model                 9/91, Rev. A
*                                           JCB / PMI
*
* This version of the OP220 model simulates the worst case 
* parameters of the 'F' grade.  The worst case parameters
* used correspond to those in the data sheet.
*
* Node assignments
*               non-inverting input
*               | inverting input
*               | | positive supply
*               | | |  negative supply
*               | | |  |  output
*               | | |  |  |
.SUBCKT OP220FA 1 2 99 50 30
*
* INPUT STAGE & POLE AT 1.5 MEGHZ
*
R1    2  3     5E11
R2    1  3     5E11
R3    5 50     5.16K
R4    6 50     5.16K
CIN   1  2     4E-12
C2    5  6     15.42E-12
I1    99 4     10UA
IOS   1  2     1.0E-9
EOS   9  1     POLY(1)  24 27  300E-6  1
Q1    5  2  4  QX
Q2    6  9  4  QX
*
EREF  98 0    27  0  1
*
* FIRST GAIN STAGE
*
R5   10 98     1E6
G1   98 10     5  6  50.27E-6
D1   10 11     DX
D2   12 10     DX
E1   99 11     POLY(1) 99 27 -1.475 1
E2   12 50     POLY(1) 27 50 -1.475 1
*
* GAIN STAGE & DOMINANT POLE AT 0.2 HZ
*
R6   13 98     3.98E9
C3   13 98     200E-12
G2   98 13     10 27  5E-6
V1   99 14     1.0
V2   15 50     1.0
D3   13 14     DX
D4   15 13     DX
*
* COMMON-MODE GAIN NETWORK WITH ZERO AT 632 HZ
*
R7   24 98     1
R8   23 24     1E6
C4   23 24     0.252E-9
E4   98 23     3  27  31.6
*
* POLE AT 600 KHZ
*
R9   25 98     1E6
C5   25 98     265E-15
G3   98 25     13 27  1E-6
*
* OUTPUT STAGE
*
ISY  99 50     43.6E-6
R10  27 99     568E3
R11  27 50     568E3
R12  30 99     2000
R13  30 50     2000
G4   28 50     25 30  0.5E-3
G5   29 50     30 25  0.5E-3
G6   30 99     99 25  0.5E-3
G7   50 30     25 50  0.5E-3
D5   99 28     DX
D6   99 29     DX
D7   50 28     DY
D8   50 29     DY
D9   25 31     DX
V3   31 30     3.1
D10  32 25     DX
V4   30 32     0.5
*
* MODELS USED
*
.MODEL QX PNP(BF=200)
.MODEL DX   D(IS=1E-15)
.MODEL DY   D(IS=1E-15 BV=50)
.ENDS
**********
*SRC=OP220GA;OP220GA;Opamps;AD-"OPxxx";Micropower, 150uA Isup. max.
*SYM=ADOPAMP
* OP220G SPICE Macro-model                 9/91, Rev. A
*                                           JCB / PMI
*
* This version of the OP220 model simulates the worst case 
* parameters of the 'G' grade.  The worst case parameters
* used correspond to those in the data sheet.
*
* Node assignments
*               non-inverting input
*               | inverting input
*               | | positive supply
*               | | |  negative supply
*               | | |  |  output
*               | | |  |  |
.SUBCKT OP220GA 1 2 99 50 30
*
* INPUT STAGE & POLE AT 1.5 MEGHZ
*
R1    2  3     5E11
R2    1  3     5E11
R3    5 50     5.16K
R4    6 50     5.16K
CIN   1  2     4E-12
C2    5  6     15.42E-12
I1    99 4     10UA
IOS   1  2     1.75E-9
EOS   9  1     POLY(1)  24 27  750E-6  1
Q1    5  2  4  QX
Q2    6  9  4  QX
*
EREF  98 0    27  0  1
*
* FIRST GAIN STAGE
*
R5   10 98     1E6
G1   98 10     5  6  50.27E-6
D1   10 11     DX
D2   12 10     DX
E1   99 11     POLY(1) 99 27 -1.475 1
E2   12 50     POLY(1) 27 50 -1.475 1
*
* GAIN STAGE & DOMINANT POLE AT 0.25 HZ
*
R6   13 98     3.18E9
C3   13 98     200E-12
G2   98 13     10 27  5E-6
V1   99 14     1.0
V2   15 50     1.0
D3   13 14     DX
D4   15 13     DX
*
* COMMON-MODE GAIN NETWORK WITH ZERO AT 2000 HZ
*
R7   24 98     1
R8   23 24     1E6
C4   23 24     0.0796E-9
E4   98 23     3  27  100
*
* POLE AT 600 KHZ
*
R9   25 98     1E6
C5   25 98     265E-15
G3   98 25     13 27  1E-6
*
* OUTPUT STAGE
*
ISY  99 50     73.6E-6
R10  27 99     568E3
R11  27 50     568E3
R12  30 99     2000
R13  30 50     2000
G4   28 50     25 30  0.5E-3
G5   29 50     30 25  0.5E-3
G6   30 99     99 25  0.5E-3
G7   50 30     25 50  0.5E-3
D5   99 28     DX
D6   99 29     DX
D7   50 28     DY
D8   50 29     DY
D9   25 31     DX
V3   31 30     3.1
D10  32 25     DX
V4   30 32     0.5
*
* MODELS USED
*
.MODEL QX PNP(BF=167)
.MODEL DX   D(IS=1E-15)
.MODEL DY   D(IS=1E-15 BV=50)
.ENDS
**********
*SRC=OP221A;OP221A;Opamps;AD-"OPxxx";Low Power, 55uA Isup. max.
*SYM=ADOPAMP
* OP221 SPICE Macro-model                  9/91, Rev. A
*                                           JCB / PMI
*
*
* Node assignments
*                non-inverting input
*                | inverting input
*                | | positive supply
*                | | |  negative supply
*                | | |  |  output
*                | | |  |  |
.SUBCKT OP221A   1 2 99 50 31
*
* INPUT STAGE & POLE AT 1.9 MEGHZ
*
R1    2  3     5E11
R2    1  3     5E11
R3    5 50     7701
R4    6 50     7701
CIN   1  2     2E-12
C2    5  6     5.51E-12
I1    99 4     10E-6
IOS   1  2     0.25E-9
EOS   9  1     POLY(1)  24 27  75E-6  1
Q1    5  2  10 QX
Q2    6  9  11 QX
R5    10 4     2541
R6    11 4     2541
*
EREF  98 0    27  0  1
*
* GAIN STAGE & DOMINANT POLE AT 0.20 HZ
*
R7   13 98     2.44E10
C3   13 98     33.3E-12
G2   98 13     5   6   1.3E-4
V1   99 14     1.25
V2   15 50     0.9
D3   13 14     DX
D4   15 13     DX
*
* POLE AT 3.0 MEGHZ
*
R8   16 98     1E6
C5   16 98     53.1E-15
G3   98 16     13 27  1E-6
*
* POLE AT 3.0 MEGHZ
*
R9   17 98     1E6
C7   17 98     53.1E-15
G10  98 17     16 27  1E-6
*
* COMMON-MODE GAIN NETWORK WITH ZERO AT 10 HZ
*
R10  24 98     1
R11  23 24     1E6
C4   23 24     1.592E-8
E4   98 23     3  27  10
*
* POLE AT 3.0 MEGHZ
*
R12  25 98     1E6
C6   25 98     53.1E-15
G9   98 25     17 27  1E-6
*
* OUTPUT STAGE
*
ISY  99 50     190E-6
R13  27 99     150E3
R14  27 50     150E3
R15  30 99     450
R16  30 50     450
L1   30 31     1E-8
G4   28 50     25 30  2.22E-3
G5   29 50     30 25  2.22E-3
G6   30 99     99 25  2.22E-3
G7   50 30     25 50  2.22E-3
D5   99 28     DX
D6   99 29     DX
D7   50 28     DY
D8   50 29     DY
D9   25 33     DX
V3   33 30     1.6
D10  32 25     DX
V4   30 32     1.6
*
* MODELS USED
*
.MODEL QX PNP(BF=100)
.MODEL DX   D(IS=1E-15)
.MODEL DY   D(IS=1E-15 BV=50)
.ENDS
**********
*SRC=OP221AA;OP221AA;Opamps;AD-"OPxxx";Low Power, 55uA Isup. max.
*SYM=ADOPAMP
* OP221A SPICE Macro-model                 9/91, Rev. A
*                                           JCB / PMI
*
* This version of the OP221 model simulates the worst case 
* parameters of the 'A' grade.  The worst case parameters
* used correspond to those in the data sheet.
*
* Node assignments
*                non-inverting input
*                | inverting input
*                | | positive supply
*                | | |  negative supply
*                | | |  |  output
*                | | |  |  |
.SUBCKT OP221AA  1 2 99 50 31
*
* INPUT STAGE & POLE AT 1.9 MEGHZ
*
R1    2  3     5E11
R2    1  3     5E11
R3    5 50     5160
R4    6 50     5160
CIN   1  2     2E-12
C2    5  6     8.12E-12
I1    99 4     10E-6
IOS   1  2     1.5E-9
EOS   9  1     POLY(1)  24 27  150E-6  1
Q1    5  2  4  QX
Q2    6  9  4  QX
*
EREF  98 0     27  0  1
*
* FIRST GAIN STAGE
*
R5   10 98     1E6
G1   98 10     5  6  39E-6
D1   10 11     DX
D2   12 10     DX
E1   99 11     POLY(1) 99 27 -1.4 1
E2   12 50     POLY(1) 27 50 -1.4 1
*
* GAIN STAGE & DOMINANT POLE AT 0.41 HZ
*
R7   13 98     7.7E9
C3   13 98     50E-12
G2   98 13     10  27  5E-6
V1   99 14     1.45
V2   15 50     1.3
D3   13 14     DX
D4   15 13     DX
*
* POLE AT 3.0 MEGHZ
*
R8   16 98     1E6
C5   16 98     53.1E-15
G3   98 16     13 27  1E-6
*
* POLE AT 3.0 MEGHZ
*
R9   17 98     1E6
C7   17 98     53.1E-15
G10  98 17     16 27  1E-6
*
* COMMON-MODE GAIN NETWORK WITH ZERO AT 31.6 HZ
*
R10  24 98     1
R11  23 24     1E6
C4   23 24     5.033E-9
E4   98 23     3  27  31.62
*
* POLE AT 3.0 MEGHZ
*
R12  25 98     1E6
C6   25 98     53.1E-15
G9   98 25     17 27  1E-6
*
* OUTPUT STAGE
*
ISY  99 50     290E-6
R13  27 99     150E3
R14  27 50     150E3
R15  30 99     450
R16  30 50     450
L1   30 31     1E-8
G4   28 50     25 30  2.22E-3
G5   29 50     30 25  2.22E-3
G6   30 99     99 25  2.22E-3
G7   50 30     25 50  2.22E-3
D5   99 28     DX
D6   99 29     DX
D7   50 28     DY
D8   50 29     DY
D9   25 33     DX
V3   33 30     1.6
D10  32 25     DX
V4   30 32     1.6
*
* MODELS USED
*
.MODEL QX PNP(BF=63.7)
.MODEL DX   D(IS=1E-15)
.MODEL DY   D(IS=1E-15 BV=50)
.ENDS
**********
*SRC=OP221BA;OP221BA;Opamps;AD-"OPxxx";Low Power, 55uA Isup. max.
*SYM=ADOPAMP
* OP221B SPICE Macro-model                 9/91, Rev. A
*                                           JCB / PMI
*
* This version of the OP221 model simulates the worst case 
* parameters of the 'B' grade.  The worst case parameters
* used correspond to those in the data sheet.
*
* Node assignments
*                non-inverting input
*                | inverting input
*                | | positive supply
*                | | |  negative supply
*                | | |  |  output
*                | | |  |  |
.SUBCKT OP221BA  1 2 99 50 31
*
* INPUT STAGE & POLE AT 1.9 MEGHZ
*
R1    2  3     5E11
R2    1  3     5E11
R3    5 50     5160
R4    6 50     5160
CIN   1  2     2E-12
C2    5  6     8.12E-12
I1    99 4     10E-6
IOS   1  2     2.5E-9
EOS   9  1     POLY(1)  24 27  300E-6  1
Q1    5  2  4  QX
Q2    6  9  4  QX
*
EREF  98 0     27  0  1
*
* FIRST GAIN STAGE
*
R5   10 98     1E6
G1   98 10     5  6  39E-6
D1   10 11     DX
D2   12 10     DX
E1   99 11     POLY(1) 99 27 -1.4 1
E2   12 50     POLY(1) 27 50 -1.4 1
*
* GAIN STAGE & DOMINANT POLE AT 0.62 HZ
*
R7   13 98     5.13E9
C3   13 98     50E-12
G2   98 13     10  27  5E-6
V1   99 14     1.45
V2   15 50     1.3
D3   13 14     DX
D4   15 13     DX
*
* POLE AT 3.0 MEGHZ
*
R8   16 98     1E6
C5   16 98     53.1E-15