**********
*SRC=OP421A;OP421A;Opamps;AD-"OPxxx";PNP Input, Low Power
*SYM=ADOPAMP
* OP421 SPICE Macro-model                  5/91, Rev. A
*                                           JCB / PMI
*
*
* Node assignments
*                non-inverting input
*                | inverting input
*                | | positive supply
*                | | |  negative supply
*                | | |  |  output
*                | | |  |  |
.SUBCKT OP421A   1 2 99 50 31
*
* INPUT STAGE & POLE AT 2.8 MEGHZ
*
R1    2  3     5E11
R2    1  3     5E11
R3    5 50     5.16K
R4    6 50     5.16K
CIN   1  2     2E-12
C2    5  6     5.51E-12
I1    99 4     10UA
IOS   1  2     0.6E-9
EOS   9  1     POLY(1)  24 27  500E-6  1
Q1    5  2  4  QX
Q2    6  9  4  QX
*
EREF  98 0    27  0  1
*
* FIRST GAIN STAGE
*
R5   10 98     1E6
G1   98 10     5  6  23.1E-6
D1   10 11     DX
D2   12 10     DX
E1   99 11     POLY(1) 99 27 -1.4 1
E2   12 50     POLY(1) 27 50 -1.4 1
*
* GAIN STAGE & DOMINANT POLE AT 2.3 HZ
*
R6   13 98     3.46E9
C3   13 98     20E-12
G2   98 13     10  27   5E-6
V1   99 14     1.3
V2   15 50     0.9
D3   13 14     DX
D4   15 13     DX
*
* POLE AT 3.0 MEGHZ
*
R9   16 98     1E6
C5   16 98     53.1E-15
G3   98 16     13 27  1E-6
*
* POLE AT 3.0 MEGHZ
*
R15  17 98     1E6
C7   17 98     53.1E-15
G10  98 17     16 27  1E-6
**
* COMMON-MODE GAIN NETWORK WITH ZERO AT 3 KHZ
*
R7   24 98     1
R8   23 24     1E6
C4   23 24     53.1E-12
E4   98 23     3  27  10
*
* POLE AT 3.0 MEGHZ
*
R14  25 98     1E6
C6   25 98     53.1E-15
G9   98 25     17 27  1E-6
*
* OUTPUT STAGE
*
ISY  99 50     140E-6
R10  27 99     33.3E3
R11  27 50     33.3E3
R12  30 99     450
R13  30 50     450
L1   30 31     1E-8
G4   28 50     25 30  2.22E-3
G5   29 50     30 25  2.22E-3
G6   30 99     99 25  2.22E-3
G7   50 30     25 50  2.22E-3
D5   99 28     DX
D6   99 29     DX
D7   50 28     DY
D8   50 29     DY
D9   25 33     DX
V3   33 30     1.7
D10  32 25     DX
V4   30 32     1.7
*
* MODELS USED
*
.MODEL QX PNP(BF=250)
.MODEL DX   D(IS=1E-15)
.MODEL DY   D(IS=1E-15 BV=50)
.ENDS
**********
*SRC=OP421BA;OP421BA;Opamps;AD-"OPxxx";PNP Input, Low Power
*SYM=ADOPAMP
* OP421B SPICE Macro-model                 5/91, Rev. A
*                                           JCB / PMI
*
* Node assignments
*                non-inverting input
*                | inverting input
*                | | positive supply
*                | | |  negative supply
*                | | |  |  output
*                | | |  |  |
.SUBCKT OP421BA  1 2 99 50 31
*
* INPUT STAGE & POLE AT 2.8 MEGHZ
*
R1    2  3     5E11
R2    1  3     5E11
R3    5 50     5.16K
R4    6 50     5.16K
CIN   1  2     2E-12
C2    5  6     5.51E-12
I1    99 4     10UA
IOS   1  2     5.0E-9
EOS   9  1     POLY(1)  24 27  2500E-6  1
Q1    5  2  4  QX
Q2    6  9  4  QX
*
EREF  98 0    27  0  1
*
* FIRST GAIN STAGE
*
R5   10 98     1E6
G1   98 10     5  6  23.1E-6
D1   10 11     DX
D2   12 10     DX
E1   99 11     POLY(1) 99 27 -0.4 1
E2   12 50     POLY(1) 27 50 -0.4 1
*
* GAIN STAGE & DOMINANT POLE AT 2.3 HZ
*
R6   13 98     1.73E9
C3   13 98     20E-12
G2   98 13     10  27   5E-6
V1   99 14     1.6
V2   15 50     1.3
D3   13 14     DX
D4   15 13     DX
*
* POLE AT 3.0 MEGHZ
*
R9   16 98     1E6
C5   16 98     53.1E-15
G3   98 16     13 27  1E-6
*
* POLE AT 3.0 MEGHZ
*
R15  17 98     1E6
C7   17 98     53.1E-15
G10  98 17     16 27  1E-6
**
* COMMON-MODE GAIN NETWORK WITH ZERO AT 21.2 KHZ
*
R7   24 98     1
R8   23 24     1E6
C4   23 24     7.5E-12
E4   98 23     3  27  70.8
*
* POLE AT 3.0 MEGHZ
*
R14  25 98     1E6
C6   25 98     53.1E-15
G9   98 25     17 27  1E-6
*
* OUTPUT STAGE
*
ISY  99 50     540E-6
R10  27 99     33.3E3
R11  27 50     33.3E3
R12  30 99     450
R13  30 50     450
L1   30 31     1E-8
G4   28 50     25 30  2.22E-3
G5   29 50     30 25  2.22E-3
G6   30 99     99 25  2.22E-3
G7   50 30     25 50  2.22E-3
D5   99 28     DX
D6   99 29     DX
D7   50 28     DY
D8   50 29     DY
D9   25 33     DX
V3   33 30     1.7
D10  32 25     DX
V4   30 32     1.7
*
* MODELS USED
*
.MODEL QX PNP(BF=100)
.MODEL DX   D(IS=1E-15)
.MODEL DY   D(IS=1E-15 BV=50)
.ENDS
**********
*SRC=OP421CA;OP421CA;Opamps;AD-"OPxxx";PNP Input, Low Power
*SYM=ADOPAMP
* OP421C SPICE Macro-model                 5/91, Rev. A
*                                           JCB / PMI
*
*
* Node assignments
*                non-inverting input
*                | inverting input
*                | | positive supply
*                | | |  negative supply
*                | | |  |  output
*                | | |  |  |
.SUBCKT OP421CA  1 2 99 50 31
*
* INPUT STAGE & POLE AT 2.8 MEGHZ
*
R1    2  3     5E11
R2    1  3     5E11
R3    5 50     5.16K
R4    6 50     5.16K
CIN   1  2     2E-12
C2    5  6     5.51E-12
I1    99 4     10UA
IOS   1  2     10E-9
EOS   9  1     POLY(1)  24 27  4000E-6  1
Q1    5  2  4  QX
Q2    6  9  4  QX
*
EREF  98 0    27  0  1
*
* FIRST GAIN STAGE
*
R5   10 98     1E6
G1   98 10     5  6  23.1E-6
D1   10 11     DX
D2   12 10     DX
E1   99 11     POLY(1) 99 27 -0.4 1
E2   12 50     POLY(1) 27 50 -0.4 1
*
* GAIN STAGE & DOMINANT POLE AT 9.2 HZ
*
R6   13 98     0.865E9
C3   13 98     20E-12
G2   98 13     10  27   5E-6
V1   99 14     1.7
V2   15 50     1.4
D3   13 14     DX
D4   15 13     DX
*
* POLE AT 3.0 MEGHZ
*
R9   16 98     1E6
C5   16 98     53.1E-15
G3   98 16     13 27  1E-6
*
* POLE AT 3.0 MEGHZ
*
R15  17 98     1E6
C7   17 98     53.1E-15
G10  98 17     16 27  1E-6
**
* COMMON-MODE GAIN NETWORK WITH ZERO AT 30 KHZ
*
R7   24 98     1
R8   23 24     1E6
C4   23 24     5.3E-12
E4   98 23     3  27  100
*
* POLE AT 3.0 MEGHZ
*
R14  25 98     1E6
C6   25 98     53.1E-15
G9   98 25     17 27  1E-6
*
* OUTPUT STAGE
*
ISY  99 50     1040E-6
R10  27 99     33.3E3
R11  27 50     33.3E3
R12  30 99     450
R13  30 50     450
L1   30 31     1E-8
G4   28 50     25 30  2.22E-3
G5   29 50     30 25  2.22E-3
G6   30 99     99 25  2.22E-3
G7   50 30     25 50  2.22E-3
D5   99 28     DX
D6   99 29     DX
D7   50 28     DY
D8   50 29     DY
D9   25 33     DX
V3   33 30     1.7
D10  32 25     DX
V4   30 32     1.7
*
* MODELS USED
*
.MODEL QX PNP(BF=62.5)
.MODEL DX   D(IS=1E-15)
.MODEL DY   D(IS=1E-15 BV=50)
.ENDS
**********
*SRC=OP421FA;OP421FA;Opamps;AD-"OPxxx";PNP Input, Low Power
*SYM=ADOPAMP
* OP421F SPICE Macro-model                 5/91, Rev. A
*                                           JCB / PMI
*
*
* Node assignments
*                non-inverting input
*                | inverting input
*                | | positive supply
*                | | |  negative supply
*                | | |  |  output
*                | | |  |  |
.SUBCKT OP421FA  1 2 99 50 31
*
* INPUT STAGE & POLE AT 2.8 MEGHZ
*
R1    2  3     5E11
R2    1  3     5E11
R3    5 50     5.16K
R4    6 50     5.16K
CIN   1  2     2E-12
C2    5  6     5.51E-12
I1    99 4     10UA
IOS   1  2     5.0E-9
EOS   9  1     POLY(1)  24 27  2500E-6  1
Q1    5  2  4  QX
Q2    6  9  4  QX
*
EREF  98 0    27  0  1
*
* FIRST GAIN STAGE
*
R5   10 98     1E6
G1   98 10     5  6  23.1E-6
D1   10 11     DX
D2   12 10     DX
E1   99 11     POLY(1) 99 27 -0.4 1
E2   12 50     POLY(1) 27 50 -0.4 1
*
* GAIN STAGE & DOMINANT POLE AT 2.3 HZ
*
R6   13 98     1.73E9
C3   13 98     20E-12
G2   98 13     10  27   5E-6
V1   99 14     1.6
V2   15 50     1.3
D3   13 14     DX
D4   15 13     DX
*
* POLE AT 3.0 MEGHZ
*
R9   16 98     1E6
C5   16 98     53.1E-15
G3   98 16     13 27  1E-6
*
* POLE AT 3.0 MEGHZ
*
R15  17 98     1E6
C7   17 98     53.1E-15
G10  98 17     16 27  1E-6
**
* COMMON-MODE GAIN NETWORK WITH ZERO AT 21.2 KHZ
*
R7   24 98     1
R8   23 24     1E6
C4   23 24     7.5E-12
E4   98 23     3  27  70.8
*
* POLE AT 3.0 MEGHZ
*
R14  25 98     1E6
C6   25 98     53.1E-15
G9   98 25     17 27  1E-6
*
* OUTPUT STAGE
*
ISY  99 50     540E-6
R10  27 99     33.3E3
R11  27 50     33.3E3
R12  30 99     450
R13  30 50     450
L1   30 31     1E-8
G4   28 50     25 30  2.22E-3
G5   29 50     30 25  2.22E-3
G6   30 99     99 25  2.22E-3
G7   50 30     25 50  2.22E-3
D5   99 28     DX
D6   99 29     DX
D7   50 28     DY
D8   50 29     DY
D9   25 33     DX
V3   33 30     1.7
D10  32 25     DX
V4   30 32     1.7
*
* MODELS USED
*
.MODEL QX PNP(BF=100)
.MODEL DX   D(IS=1E-15)
.MODEL DY   D(IS=1E-15 BV=50)
.ENDS
**********
*SRC=OP421GA;OP421GA;Opamps;AD-"OPxxx";PNP Input, Low Power
*SYM=ADOPAMP
* OP421G SPICE Macro-model                 5/91, Rev. A
*                                           JCB / PMI
*
*
* Node assignments
*                non-inverting input
*                | inverting input
*                | | positive supply
*                | | |  negative supply
*                | | |  |  output
*                | | |  |  |
.SUBCKT OP421GA  1 2 99 50 31
*
* INPUT STAGE & POLE AT 2.8 MEGHZ
*
R1    2  3     5E11
R2    1  3     5E11
R3    5 50     5.16K
R4    6 50     5.16K
CIN   1  2     2E-12
C2    5  6     5.51E-12
I1    99 4     10UA
IOS   1  2     10E-9
EOS   9  1     POLY(1)  24 27  4000E-6  1
Q1    5  2  4  QX
Q2    6  9  4  QX
*
EREF  98 0    27  0  1
*
* FIRST GAIN STAGE
*
R5   10 98     1E6
G1   98 10     5  6  23.1E-6
D1   10 11     DX
D2   12 10     DX
E1   99 11     POLY(1) 99 27 -0.4 1
E2   12 50     POLY(1) 27 50 -0.4 1
*
* GAIN STAGE & DOMINANT POLE AT 9.2 HZ
*
R6   13 98     0.865E9
C3   13 98     20E-12
G2   98 13     10  27   5E-6
V1   99 14     1.7
V2   15 50     1.4
D3   13 14     DX
D4   15 13     DX
*
* POLE AT 3.0 MEGHZ
*
R9   16 98     1E6
C5   16 98     53.1E-15
G3   98 16     13 27  1E-6
*
* POLE AT 3.0 MEGHZ
*
R15  17 98     1E6
C7   17 98     53.1E-15
G10  98 17     16 27  1E-6
**
* COMMON-MODE GAIN NETWORK WITH ZERO AT 30 KHZ
*
R7   24 98     1
R8   23 24     1E6
C4   23 24     5.3E-12
E4   98 23     3  27  100
*
* POLE AT 3.0 MEGHZ
*
R14  25 98     1E6
C6   25 98     53.1E-15
G9   98 25     17 27  1E-6
*
* OUTPUT STAGE
*
ISY  99 50     1040E-6
R10  27 99     33.3E3
R11  27 50     33.3E3
R12  30 99     450
R13  30 50     450
L1   30 31     1E-8
G4   28 50     25 30  2.22E-3
G5   29 50     30 25  2.22E-3
G6   30 99     99 25  2.22E-3
G7   50 30     25 50  2.22E-3
D5   99 28     DX
D6   99 29     DX
D7   50 28     DY
D8   50 29     DY
D9   25 33     DX
V3   33 30     1.7
D10  32 25     DX
V4   30 32     1.7
*
* MODELS USED
*
.MODEL QX PNP(BF=62.5)
.MODEL DX   D(IS=1E-15)
.MODEL DY   D(IS=1E-15 BV=50)
.ENDS
**********
*SRC=OP421HA;OP421HA;Opamps;AD-"OPxxx";PNP Input, Low Power
*SYM=ADOPAMP
* OP421H SPICE Macro-model                 5/91, Rev. A
*                                           JCB / PMI
*
*
* Node assignments
*                non-inverting input
*                | inverting input
*                | | positive supply
*                | | |  negative supply
*                | | |  |  output
*                | | |  |  |
.SUBCKT OP421HA  1 2 99 50 31
*
* INPUT STAGE & POLE AT 2.8 MEGHZ
*
R1    2  3     5E11
R2    1  3     5E11
R3    5 50     5.16K
R4    6 50     5.16K
CIN   1  2     2E-12
C2    5  6     5.51E-12
I1    99 4     10UA
IOS   1  2     20E-9
EOS   9  1     POLY(1)  24 27  6000E-6  1
Q1    5  2  4  QX
Q2    6  9  4  QX
*
EREF  98 0    27  0  1
*
* FIRST GAIN STAGE
*
R5   10 98     1E6
G1   98 10     5  6  23.1E-6
D1   10 11     DX
D2   12 10     DX
E1   99 11     POLY(1) 99 27 -0.4 1
E2   12 50     POLY(1) 27 50 -0.4 1
*
* GAIN STAGE & DOMINANT POLE AT 9.2 HZ
*
R6   13 98     0.865E9
C3   13 98     20E-12
G2   98 13     10  27   5E-6
V1   99 14     1.8
V2   15 50     1.5
D3   13 14     DX
D4   15 13     DX
*
* POLE AT 3.0 MEGHZ
*
R9   16 98     1E6
C5   16 98     53.1E-15
G3   98 16     13 27  1E-6
*
* POLE AT 3.0 MEGHZ
*
R15  17 98     1E6
C7   17 98     53.1E-15
G10  98 17     16 27  1E-6
**
* COMMON-MODE GAIN NETWORK WITH ZERO AT 47.5 KHZ
*
R7   24 98     1
R8   23 24     1E6
C4   23 24     3.35E-12
E4   98 23     3  27  158
*
* POLE AT 3.0 MEGHZ
*
R14  25 98     1E6
C6   25 98     53.1E-15
G9   98 25     17 27  1E-6
*
* OUTPUT STAGE
*
ISY  99 50     1540E-6
R10  27 99     33.3E3
R11  27 50     33.3E3
R12  30 99     450
R13  30 50     450
L1   30 31     1E-8
G4   28 50     25 30  2.22E-3
G5   29 50     30 25  2.22E-3
G6   30 99     99 25  2.22E-3
G7   50 30     25 50  2.22E-3
D5   99 28     DX
D6   99 29     DX
D7   50 28     DY
D8   50 29     DY
D9   25 33     DX
V3   33 30     1.7
D10  32 25     DX
V4   30 32     1.7
*
* MODELS USED
*
.MODEL QX PNP(BF=33.3)
.MODEL DX   D(IS=1E-15)
.MODEL DY   D(IS=1E-15 BV=50)
.ENDS
**********
*SRC=OP42AA;OP42AA;Opamps;AD-"OPxxx";JFET Input, Fast, 58V/us
*SYM=ADOPAMP
* OP42A SPICE Macro-model                  12/90, Rev. B
*                                           JCB / PMI
*
* Revision History:
*   REV. B
*     Re-ordered subcircuit call out nodes to put the 
*     output node last.
*     Changed Ios from 4E-11 to 2E-11
*
*
* This version of the OP42 model simulates the worst case 
* parameters of the 'A' grade.  The worst case parameters
* used correspond to those in the data book.
*
*
* Node assignments
*              non-inverting input
*              | inverting input
*              | | positive supply
*              | | |  negative supply
*              | | |  |  output
*              | | |  |  |
.SUBCKT OP42AA 1 2 99 50 32
*
* INPUT STAGE & POLE AT 15.9 MHZ
*
R1   1  3     5E11
R2   2  3     5E11
R3   5 50     636.63
R4   6 50     636.63
CIN  1  2     5E-12
C2   5  6     7.9E-12
I1  99  4     1E-3
IOS  1  2     2E-11
EOS  7  1     POLY(1)  20 26  1E-3  1
J1   5  2  4  JX
J2   6  7  4  JX
*
* SECOND STAGE & POLE AT 45 HZ
*
R5   9 99     63.663E6
R6   9 50     63.663E6
C3   9 99     22.222E-12
C4   9 50     22.222E-12
G1  99  9     POLY(1)  5  6  4.76E-3  1.571E-3
G2   9 50     POLY(1)  6  5  4.76E-3  1.571E-3
V2  99  8     3.582
V3  10 50     3.582
D1   9  8     DX
D2  10  9     DX
*
* POLE-ZERO PAIR AT 1.80 MHZ / 2.20 MHZ
*
R7  11 99     1E6
R8  11 50     1E6
R9  11 12     4.5E6
R10 11 13     4.5E6
C5  12 99     16.1E-15
C6  13 50     16.1E-15
G3  99 11     9  26  1E-6
G4  11 50     26  9  1E-6
*
* POLE-ZERO PAIR AT 1.80 MHZ / 2.20 MHZ
*
R11 14 99     1E6
R12 14 50     1E6
R13 14 15     4.5E6
R14 14 16     4.5E6
C7  15 99     16.1E-15
C8  16 50     16.1E-15
G5  99 14     11 26  1E-6
G6  14 50     26 11  1E-6
*
* POLE AT 53 MHZ
*
R15 17 99     1E6
R16 17 50     1E6
C9  17 99     3E-15
C10 17 50     3E-15
G7  99 17     14 26  1E-6
G8  17 50     26 14  1E-6
*
* POLE AT 53 MHZ
*
R17 18 99     1E6
R18 18 50     1E6
C11 18 99     3E-15
C12 18 50     3E-15
G9  99 18     17 26  1E-6
G10 18 50     26 17  1E-6
*
* POLE AT 53 MHZ
*
R19 19 99     1E6
R20 19 50     1E6
C13 19 99     3E-15
C14 19 50     3E-15
G11 99 19     18 26  1E-6
G12 19 50     26 18  1E-6
*
* COMMON-MODE GAIN NETWORK WITH ZERO AT 317 KHZ
*
R21 20 21     1E6 
R22 20 23     1E6
L1  21 99     0.5017
L2  23 50     0.5017
G13 99 20     3  26  5.012E-11
G14 20 50     26  3  5.012E-11
*
* POLE AT 79.6 MHZ
*
R24 25 99     1E6
R25 25 50     1E6
C15 25 99     2E-15
C16 25 50     2E-15
G15 99 25     19 26  1E-6
G16 25 50     26 19  1E-6
*
* OUTPUT STAGE
*
R26 26 99     111.1E3
R27 26 50     111.1E3
R28 27 99     90
R29 27 50     90
L3  27 32     2.5E-7
G17 30 50     25 27  11.1111E-3
G18 31 50     27 25  11.1111E-3
G19 27 99     99 25  11.1111E-3
G20 50 27     25 50  11.1111E-3
V6  28 27     0.2
V7  27 29     0.2
D5  25 28     DX
D6  29 25     DX
D7  99 30     DX
D8  99 31     DX
D9  50 30     DY
D10 50 31     DY
*
* MODELS USED
*
.MODEL JX PJF(BETA=1.245E-3  VTO=-2.000  IS=2E-10)
.MODEL DX   D(IS=1E-15)
.MODEL DY   D(IS=1E-15 BV=50)
.ENDS
**********
*SRC=OP42EA;OP42EA;Opamps;AD-"OPxxx";JFET Input, Fast, 50V/us
*SYM=ADOPAMP
* OP42E SPICE Macro-model                  12/90, Rev. B
*                                           JCB / PMI
*
* Revision History:
*   REV. B
*     Re-ordered subcircuit call out nodes to put the 
*     output node last.
*     Changed Ios from 4E-11 to 2E-11
*
*
* This version of the OP42 model simulates the worst case 
* parameters of the 'E' grade.  The worst case parameters
* used correspond to those in the data book.
*
*
* Node assignments
*              non-inverting input
*              | inverting input
*              | | positive supply
*              | | |  negative supply
*              | | |  |  output
*              | | |  |  |
.SUBCKT OP42EA 1 2 99 50 32
*
* INPUT STAGE & POLE AT 15.9 MHZ
*
R1   1  3     5E11
R2   2  3     5E11
R3   5 50     707.21
R4   6 50     707.21
CIN  1  2     5E-12
C2   5  6     7.077E-12
I1  99  4     1E-3
IOS  1  2     2E-11
EOS  7  1     POLY(1)  20 26  750E-6  1
J1   5  2  4  JX
J2   6  7  4  JX
*
* SECOND STAGE & POLE AT 45 HZ
*
R5   9 99     70.736E6
R6   9 50     70.736E6
C3   9 99     20E-12
C4   9 50     20E-12
G1  99  9     POLY(1)  5  6  4.76E-3  1.414E-3
G2   9 50     POLY(1)  6  5  4.76E-3  1.414E-3
V2  99  8     3.582
V3  10 50     3.582
D1   9  8     DX
D2  10  9     DX
*
* POLE-ZERO PAIR AT 1.80 MHZ / 2.20 MHZ
*
R7  11 99     1E6
R8  11 50     1E6
R9  11 12     4.5E6
R10 11 13     4.5E6
C5  12 99     16.1E-15
C6  13 50     16.1E-15
G3  99 11     9  26  1E-6
G4  11 50     26  9  1E-6
*
* POLE-ZERO PAIR AT 1.80 MHZ / 2.20 MHZ
*
R11 14 99     1E6
R12 14 50     1E6
R13 14 15     4.5E6
R14 14 16     4.5E6
C7  15 99     16.1E-15
C8  16 50     16.1E-15
G5  99 14     11 26  1E-6
G6  14 50     26 11  1E-6
*
* POLE AT 53 MHZ
*
R15 17 99     1E6
R16 17 50     1E6
C9  17 99     3E-15
C10 17 50     3E-15
G7  99 17     14 26  1E-6
G8  17 50     26 14  1E-6
*
* POLE AT 53 MHZ
*
R17 18 99     1E6
R18 18 50     1E6
C11 18 99     3E-15
C12 18 50     3E-15
G9  99 18     17 26  1E-6
G10 18 50     26 17  1E-6
*
* POLE AT 53 MHZ
*
R19 19 99     1E6
R20 19 50     1E6
C13 19 99     3E-15
C14 19 50     3E-15
G11 99 19     18 26  1E-6
G12 19 50     26 18  1E-6
*
* COMMON-MODE GAIN NETWORK WITH ZERO AT 252 KHZ
*
R21 20 21     1E6 
R22 20 23     1E6
L1  21 99     0.6316
L2  23 50     0.6316
G13 99 20     3  26  3.981E-11
G14 20 50     26  3  3.981E-11
*
* POLE AT 79.6 MHZ
*
R24 25 99     1E6
R25 25 50     1E6
C15 25 99     2E-15
C16 25 50     2E-15
G15 99 25     19 26  1E-6
G16 25 50     26 19  1E-6
*
* OUTPUT STAGE
*
R26 26 99     111.1E3
R27 26 50     111.1E3
R28 27 99     90
R29 27 50     90
L3  27 32     2.5E-7
G17 30 50     25 27  11.1111E-3
G18 31 50     27 25  11.1111E-3
G19 27 99     99 25  11.1111E-3
G20 50 27     25 50  11.1111E-3
V6  28 27     0.2
V7  27 29     0.2
D5  25 28     DX
D6  29 25     DX
D7  99 30     DX
D8  99 31     DX
D9  50 30     DY
D10 50 31     DY
*
* MODELS USED
*
.MODEL JX PJF(BETA=999.7E-6  VTO=-2.000  IS=2E-10)
.MODEL DX   D(IS=1E-15)
.MODEL DY   D(IS=1E-15 BV=50)
.ENDS
**********
*SRC=OP42FA;OP42FA;Opamps;AD-"OPxxx";JFET Input, Fast, 50V/us
*SYM=ADOPAMP
* OP42F SPICE Macro-model                  12/90, Rev. B
*                                           JCB / PMI
*
* Revision History:
*   REV. B
*     Re-ordered subcircuit call out nodes to put the 
*     output node last.
*     Changed Ios from 5E-11 to 2.5E-11
*
*
* This version of the OP42 model simulates the worst case 
* parameters of the 'F' grade.  The worst case parameters
* used correspond to those in the data book.
*
*
* Node assignments
*              non-inverting input
*              | inverting input
*              | | positive supply
*              | | |  negative supply
*              | | |  |  output
*              | | |  |  |
.SUBCKT OP42FA 1 2 99 50 32
*
* INPUT STAGE & POLE AT 15.9 MHZ
*
R1   1  3     5E11
R2   2  3     5E11
R3   5 50     565.93
R4   6 50     565.93
CIN  1  2     5E-12
C2   5  6     8.444E-12
I1  99  4     1E-3
IOS  1  2     2.5E-11
EOS  7  1     POLY(1)  20 26  1.5E-3  1
J1   5  2  4  JX
J2   6  7  4  JX
*
* SECOND STAGE & POLE AT 45 HZ
*
R5   9 99     56.588E6
R6   9 50     56.588E6
C3   9 99     25E-12
C4   9 50     25E-12
G1  99  9     POLY(1)  5  6  5.26E-3  1.767E-3
G2   9 50     POLY(1)  6  5  5.26E-3  1.767E-3
V2  99  8     3.582
V3  10 50     3.582
D1   9  8     DX
D2  10  9     DX
*
* POLE-ZERO PAIR AT 1.80 MHZ / 2.20 MHZ
*
R7  11 99     1E6
R8  11 50     1E6
R9  11 12     4.5E6
R10 11 13     4.5E6
C5  12 99     16.1E-15
C6  13 50     16.1E-15
G3  99 11     9  26  1E-6
G4  11 50     26  9  1E-6
*
* POLE-ZERO PAIR AT 1.80 MHZ / 2.20 MHZ
*
R11 14 99     1E6
R12 14 50     1E6
R13 14 15     4.5E6
R14 14 16     4.5E6
C7  15 99     16.1E-15
C8  16 50     16.1E-15
G5  99 14     11 26  1E-6
G6  14 50     26 11  1E-6
*
* POLE AT 53 MHZ
*
R15 17 99     1E6
R16 17 50     1E6
C9  17 99     3E-15
C10 17 50     3E-15
G7  99 17     14 26  1E-6
G8  17 50     26 14  1E-6
*
* POLE AT 53 MHZ
*
R17 18 99     1E6
R18 18 50     1E6
C11 18 99     3E-15
C12 18 50     3E-15
G9  99 18     17 26  1E-6
G10 18 50     26 17  1E-6
*
* POLE AT 53 MHZ
*
R19 19 99     1E6
R20 19 50     1E6
C13 19 99     3E-15
C14 19 50     3E-15
G11 99 19     18 26  1E-6
G12 19 50     26 18  1E-6
*
* COMMON-MODE GAIN NETWORK WITH ZERO AT 633 KHZ
*
R21 20 21     1E6 
R22 20 23     1E6
L1  21 99     0.2515
L2  23 50     0.2515
G13 99 20     3  26  1.000E-10
G14 20 50     26  3  1.000E-10
*
* POLE AT 79.6 MHZ
*
R24 25 99     1E6
R25 25 50     1E6
C15 25 99     2E-15
C16 25 50     2E-15
G15 99 25     19 26  1E-6
G16 25 50     26 19  1E-6
*
* OUTPUT STAGE
*
R26 26 99     111.1E3
R27 26 50     111.1E3
R28 27 99     90
R29 27 50     90
L3  27 32     2.5E-7
G17 30 50     25 27  11.1111E-3
G18 31 50     27 25  11.1111E-3
G19 27 99     99 25  11.1111E-3
G20 50 27     25 50  11.1111E-3
V6  28 27     0.2
V7  27 29     0.2
D5  25 28     DX
D6  29 25     DX
D7  99 30     DX
D8  99 31     DX
D9  50 30     DY
D10 50 31     DY
*
* MODELS USED
*
.MODEL JX PJF(BETA=1.561E-3  VTO=-2.000  IS=2.5E-10)
.MODEL DX   D(IS=1E-15)
.MODEL DY   D(IS=1E-15 BV=50)
.ENDS
**********
*SRC=OP42GA;OP42GA;Opamps;AD-"OPxxx";JFET Input, Fast, 50V/us
*SYM=ADOPAMP
* OP42G SPICE Macro-model                  12/90, Rev. B
*                                           JCB / PMI
*
* Revision History:
*   REV. B
*     Re-ordered subcircuit call out nodes to put the 
*     output node last.
*     Changed Ios from 5E-11 to 2.5E-11
*
*
* This version of the OP42 model simulates the worst case 
* parameters of the 'G' grade.  The worst case parameters
* used correspond to those in the data book.
*
*
* Node assignments
*              non-inverting input
*              | inverting input
*              | | positive supply
*              | | |  negative supply
*              | | |  |  output
*              | | |  |  |
.SUBCKT OP42GA 1 2 99 50 32
*
* INPUT STAGE & POLE AT 15.9 MHZ
*
R1   1  3     5E11
R2   2  3     5E11
R3   5 50     565.93
R4   6 50     565.93
CIN  1  2     5E-12
C2   5  6     8.444E-12
I1  99  4     1E-3
IOS  1  2     2.5E-11
EOS  7  1     POLY(1)  20 26  5E-3  1
J1   5  2  4  JX
J2   6  7  4  JX
*
* SECOND STAGE & POLE AT 45 HZ
*
R5   9 99     56.588E6
R6   9 50     56.588E6
C3   9 99     25E-12
C4   9 50     25E-12
G1  99  9     POLY(1)  5  6  5.26E-3  1.767E-3
G2   9 50     POLY(1)  6  5  5.26E-3  1.767E-3
V2  99  8     3.582
V3  10 50     3.582
D1   9  8     DX
D2  10  9     DX
*
* POLE-ZERO PAIR AT 1.80 MHZ / 2.20 MHZ
*
R7  11 99     1E6
R8  11 50     1E6
R9  11 12     4.5E6
R10 11 13     4.5E6
C5  12 99     16.1E-15
C6  13 50     16.1E-15
G3  99 11     9  26  1E-6
G4  11 50     26  9  1E-6
*
* POLE-ZERO PAIR AT 1.80 MHZ / 2.20 MHZ
*
R11 14 99     1E6
R12 14 50     1E6
R13 14 15     4.5E6
R14 14 16     4.5E6
C7  15 99     16.1E-15
C8  16 50     16.1E-15
G5  99 14     11 26  1E-6
G6  14 50     26 11  1E-6
*
* POLE AT 53 MHZ
*
R15 17 99     1E6
R16 17 50     1E6
C9  17 99     3E-15
C10 17 50     3E-15
G7  99 17     14 26  1E-6
G8  17 50     26 14  1E-6
*
* POLE AT 53 MHZ
*
R17 18 99     1E6
R18 18 50     1E6
C11 18 99     3E-15
C12 18 50     3E-15
G9  99 18     17 26  1E-6
G10 18 50     26 17  1E-6
*
* POLE AT 53 MHZ
*
R19 19 99     1E6
R20 19 50     1E6
C13 19 99     3E-15
C14 19 50     3E-15
G11 99 19     18 26  1E-6
G12 19 50     26 18  1E-6
*
* COMMON-MODE GAIN NETWORK WITH ZERO AT 633 KHZ
*
R21 20 21     1E6 
R22 20 23     1E6
L1  21 99     0.2515
L2  23 50     0.2515
G13 99 20     3  26  1.000E-10
G14 20 50     26  3  1.000E-10
*
* POLE AT 79.6 MHZ
*
R24 25 99     1E6
R25 25 50     1E6
C15 25 99     2E-15
C16 25 50     2E-15
G15 99 25     19 26  1E-6
G16 25 50     26 19  1E-6
*
* OUTPUT STAGE
*
R26 26 99     111.1E3
R27 26 50     111.1E3
R28 27 99     90
R29 27 50     90
L3  27 32     2.5E-7
G17 30 50     25 27  11.1111E-3
G18 31 50     27 25  11.1111E-3
G19 27 99     99 25  11.1111E-3
G20 50 27     25 50  11.1111E-3
V6  28 27     0.2
V7  27 29     0.2
D5  25 28     DX
D6  29 25     DX
D7  99 30     DX
D8  99 31     DX
D9  50 30     DY
D10 50 31     DY
*
* MODELS USED
*
.MODEL JX PJF(BETA=1.561E-3  VTO=-2.000  IS=2.5E-10)
.MODEL DX   D(IS=1E-15)
.MODEL DY   D(IS=1E-15 BV=50)
.ENDS
**********
*SRC=OP43A;OP43A;Opamps;AD-"OPxxx";JFET Input, Low IBias 3pA
*SYM=ADOPAMP
* OP43 SPICE Macro-model                  12/90, Rev. A
*
*
* Node assignments
*                non-inverting input
*                | inverting input
*                | | positive supply
*                | | |  negative supply
*                | | |  |  output
*                | | |  |  |
.SUBCKT OP43A    1 2 99 50 20
*
* INPUT STAGE AND POLE AT 5 MHZ
*
R1   1  3     5E12
R2   2  3     5E12
R3   5 50     3.28K
R4   6 50     3.28K
CIN  1  2     5E-12
C2   5  6     4.85E-12
I1  99  4     1E-4
IOS  1  2     0.02E-12
EOS  7  1     POLY(1)  12 14  0.2E-3  1
J1   5  2  4  JX
J2   6  7  4  JX
*
EREF 98  0    14  0  1
*
* GAIN STAGE & DOMINANT POLE AT 0.58 HZ
*
R5  8  98     16.4E9
C3  8  98     16.7E-12
G1  98  8     5  6  305E-6
V2  99  9     2.4
V3  10 50     2.4
D1  8   9     DX
D2  10  8     DX
*
* COMMON-MODE GAIN NETWORK WITH ZERO AT 200 HZ
*
R6  11 12     1E6
C4  11 12     798E-12
R7  12 98     1
E2  11 98     3  14  1.78
*
* POLE AT 6 MHZ
*
R8   13 98    1E6
C5   13 98    26.5E-15
G2   98 13    8  14  1E-6
*
* OUTPUT STAGE
*
R9  14 99     400E3
R10 14 50     400E3
ISY 99 50     612.5E-6
R11 15 99     200
R12 15 50     200
L1  15 20     2.5E-7
G3  18 50     13 15  5E-3
G4  19 50     15 13  5E-3
G5  15 99     99 13  5E-3
G6  50 15     13 50  5E-3
V4  16 15     1.3
V5  15 17     1.1
D3  13 16     DX
D4  17 13     DX
D5  99 18     DX
D6  99 19     DX
D7  50 18     DY
D8  50 19     DY
*
* MODELS USED
*
.MODEL JX PJF(BETA=465E-6  VTO=-2.000  IS=3E-12)
.MODEL DX   D(IS=1E-15)
.MODEL DY   D(IS=1E-15 BV=50)
.ENDS
**********
*SRC=OP43AA;OP43AA;Opamps;AD-"OPxxx";JFET Input, Low IBias 3pA
*SYM=ADOPAMP
* OP43A SPICE Macro-model                  12/90, Rev. A
*
*
* This version of the OP43 model simulates the worst case 
* parameters of the 'A' grade.  The worst case parameters
* used correspond to those in the data book.
*
*
* Node assignments
*                non-inverting input
*                | inverting input
*                | | positive supply
*                | | |  negative supply
*                | | |  |  output
*                | | |  |  |
.SUBCKT OP43AA   1 2 99 50 20
*
* INPUT STAGE AND POLE AT 5 MHZ
*
R1   1  3     5E12
R2   2  3     5E12
R3   5 50     2.74K
R4   6 50     2.74K
CIN  1  2     5E-12
C2   5  6     5.81E-12
I1  99  4     1E-4
IOS  1  2     0.5E-12
EOS  7  1     POLY(1)  12 14  0.5E-3  1
J1   5  2  4  JX
J2   6  7  4  JX
*
EREF 98  0    14  0  1
*
* GAIN STAGE & DOMINANT POLE AT 0.58 HZ
*
R5  8  98     2.74E9
C3  8  98     20.0E-12
G1  98  8     5  6  365E-6
V2  99  9     2.7
V3  10 50     2.7
D1  8   9     DX
D2  10  8     DX
*
* COMMON-MODE GAIN NETWORK WITH ZERO AT 1120 HZ
*
R6  11 12     1E6
C4  11 12     142E-12
R7  12 98     1
E2  11 98     3  14  10.0
*
* POLE AT 6 MHZ
*
R8   13 98    1E6
C5   13 98    26.5E-15
G2   98 13    8  14  1E-6
*
* OUTPUT STAGE
*
R9  14 99     400E3
R10 14 50     400E3
ISY 99 50     862.5E-6
R11 15 99     200
R12 15 50     200
L1  15 20     2.5E-7
G3  18 50     13 15  5E-3
G4  19 50     15 13  5E-3
G5  15 99     99 13  5E-3
G6  50 15     13 50  5E-3
V4  16 15     0.5
V5  15 17     0.5
D3  13 16     DX
D4  17 13     DX
D5  99 18     DX
D6  99 19     DX
D7  50 18     DY
D8  50 19     DY
*
* MODELS USED
*
.MODEL JX PJF(BETA=667E-6  VTO=-2.000  IS=5.0E-12)
.MODEL DX   D(IS=1E-15)
.MODEL DY   D(IS=1E-15 BV=50)
.ENDS
**********
*SRC=OP43BA;OP43BA;Opamps;AD-"OPxxx";JFET Input, Low IBias 3.5pA
*SYM=ADOPAMP
* OP43B SPICE Macro-model                  12/90, Rev. A
*
* This version of the OP43 model simulates the worst case 
* parameters of the 'B' grade.  The worst case parameters
* used correspond to those in the data book.
*
*
* Node assignments
*                non-inverting input
*                | inverting input
*                | | positive supply
*                | | |  negative supply
*                | | |  |  output
*                | | |  |  |
.SUBCKT OP43BA   1 2 99 50 20
*
* INPUT STAGE AND POLE AT 5 MHZ
*
R1   1  3     5E12
R2   2  3     5E12
R3   5 50     2.74K
R4   6 50     2.74K
CIN  1  2     5E-12
C2   5  6     5.81E-12
I1  99  4     1E-4
IOS  1  2     1.0E-12
EOS  7  1     POLY(1)  12 14  1.0E-3  1
J1   5  2  4  JX
J2   6  7  4  JX
*
EREF 98  0    14  0  1
*
* GAIN STAGE & DOMINANT POLE AT 0.58 HZ
*
R5  8  98     1.37E9
C3  8  98     20.0E-12
G1  98  8     5  6  365E-6
V2  99  9     3.0
V3  10 50     3.0
D1  8   9     DX
D2  10  8     DX
*
* COMMON-MODE GAIN NETWORK WITH ZERO AT 3500 HZ
*
R6  11 12     1E6
C4  11 12     45.0E-12
R7  12 98     1
E2  11 98     3  14  31.6
*
* POLE AT 6 MHZ
*
R8   13 98    1E6
C5   13 98    26.5E-15
G2   98 13    8  14  1E-6
*
* OUTPUT STAGE
*
R9  14 99     400E3
R10 14 50     400E3
ISY 99 50     1062.5E-6
R11 15 99     200
R12 15 50     200
L1  15 20     2.5E-7
G3  18 50     13 15  5E-3
G4  19 50     15 13  5E-3
G5  15 99     99 13  5E-3
G6  50 15     13 50  5E-3
V4  16 15     0.5
V5  15 17     0.5
D3  13 16     DX
D4  17 13     DX
D5  99 18     DX
D6  99 19     DX
D7  50 18     DY
D8  50 19     DY
*
* MODELS USED
*
.MODEL JX PJF(BETA=667E-6  VTO=-2.000  IS=10.0E-12)
.MODEL DX   D(IS=1E-15)
.MODEL DY   D(IS=1E-15 BV=50)
.ENDS
**********
*SRC=OP43EA;OP43EA;Opamps;AD-"OPxxx";JFET Input, Low IBias 3pA
*SYM=ADOPAMP