**********
*SRC=AD9630;AD9630;Buffers;Analog Devices;Amplifier
*SYM=ADBUFF
* AD9630 SPICE Macro-Model                    1/91, Rev. A
*                                             BT / IED
*
***
*** WRITTEN BY BILL TOLLEY       ***
*** ANALOG DEVICES, IED DIVISION ***
*** GREENSBORO, NORTH CAROLINA   ***
***                              ***
*** PATENT PENDING               ***
***                              ***
*** FOR APPLICATIONS ASSITANCE:  ***
*** CALL (919) 668-9511 AND ASK  ***
*** FOR MARKETING APPLICATIONS   ***
***
*
.SUBCKT AD9630 1 14 100 110 
*
*** 1=VIN,14=VOUT,100=VCC,110=VEE **
*
C1 100 7 5.0E-12
C2 5 110 5.0E-12
C3 2 0 2.4E-12
C4 3 0 2.7E-12
C5 8 0 2.4E-12
C6 6 0 2.7E-12
F1 100 7 V1 1 
F2 5 110 V2 1  
F3 1 110 V3 1
GM1 4  5    POLY(1)  2 6    -0.027    0.020 
GM2 7 10    POLY(1)  3 8    -0.027   -0.020   
I1 100 2 1.5E-3
I2 3 110 1.5E-3
I3 100 8 1.5E-3
I4 6 110 1.5E-3
I5 100 7 2E-3
I6 5 110 2E-3
I7 100 17 1.5E-3
I8 18 110 1.5E-3
Q1 110 1 2 100 QPA
Q2 100 1 3 110 QNA
Q3 100 14 6 110 QNA
Q4 110 14 8 100 QPA
Q5 7 7 11 110 QNA
Q6 5 5 12 100 QPB
Q7 100 7 13 110 QNB 8
Q8 110 5 15 100 QPB 8
Q9 110 16 17 100 QPA
Q10 100 16 18 110 QNA
R1 100 2 45E3
R2 3 110 161E3  
R3 110 7 53E3   
R4 5 110 17E3
R5 13 14 6
R6 14 15 6
R7 11 12 24
R8 100 8 45E3
R9 6 110 161E3
R10 100 17 45E3   
R11 18 110 45E3   
V1 100 4 0
V2 10 110 0
V3 16 110 DC 5
*
.MODEL QNA NPN  RB=35, IRB=0, RBM=8, RC=20, RE=0.56, 
+ IS=4E-16, EG=1.2, XTI=2, XTB=2.4, BF=220, IKF=15E-3, 
+ VAF=66, ISE=3E-15, NE=1.7, BR=4, IKR=1E6, VAR=3, 
+ ISC=4.8E-20, NC=1.7, TF=24E-12, TR=4.4N, CJE=4.3E-13, 
+ VJE=1.11, MJE=0.5, CJC=3.4E-13, VJC=0.642 
+ XCJC=0.18,  CJS=4.9E-13, VJS=0.5,
+ MJS=0.32, ITF=65E-3, VTF=10, XTF=15   
*
.MODEL QNB NPN  RB=6, IRB=0, RBM=1.33, RC=3.1, RE=0.09, 
+ IS=24E-16, EG=1.21, XTI=2, XTB=2.4, BF=220, 
+ IKF=90E-3, VAF=66, ISE=18E-15, NE=1.7, 
+ BR=4, IKR=1E6, VAR=3, ISC=29E-20, NC=1.7, 
+ TF=22E-12, TR=7.3N, CJE=1.8E-12, VJE=1.11, MJE=0.5, 
+ CJC=1.59E-12, VJC=0.62, MJC=0.34, XCJC=0.23, 
+ CJS=1.28E-12, VJS=0.5, MJS=0.32, 
+ ITF=200E-3, VTF=10, XTF=15   
*
.MODEL QPA PNP  RB=36, IRB=0, RBM=13, RC=14, RE=0.3, 
+ IS=2.4E-16, EG=1.21, XTI=1.5, XTB=2.1, BF=115, 
+ IKF=30E-3, VAF=30, ISE=12E-15, NE=1.6, 
+ BR=4, IKR=1E6, VAR=1.4, ISC=5E-18, NC=1.6, 
+ TF=41E-12, TR=5.3N, CJE=2.4E-13, VJE=0.89, MJE=0.49, 
+ CJC=5.37E-13, VJC=0.53, MJC=0.19, XCJC=0.17, 
+ CJS=1.11E-12, VJS=0.6, MJS=0.35, 
+ ITF=150E-3, VTF=10, XTF=5   
*
.MODEL QPB PNP  RB=29, IRB=0, RBM=10, RC=13, RE=0.24, 
+ IS=3.03E-16, EG=1.21, XTI=1.5, XTB=2.1, BF=115, 
+ IKF=38E-3, VAF=30, ISE=15E-15, NE=1.56, 
+ BR=4, IKR=1E6, VAR=1.4, ISC=6E-18, NC=1.63, 
+ TF=39E-12, TR=5.45N, CJE=3.9E-13, VJE=0.89, MJE=0.49, 
+ CJC=6.41E-13, VJC=0.53, MJC=0.19, XCJC=0.18, 
+ CJS=1E-12, VJS=0.6, MJS=0.35, 
+ ITF=150E-3, VTF=10, XTF=5   
*
.MODEL QPC PNP  RB=4.76, IRB=0, RBM=1.71, RC=2.84, RE=0.04, 
+ IS=18.15E-16, EG=1.21, XTI=1.5, XTB=2.1, BF=115, 
+ IKF=225E-3, VAF=30, ISE=92E-15, NE=1.56, 
+ BR=4, IKR=1E6, VAR=1.4, ISC=3.74E-17, NC=1.63, 
+ TF=31E-12, TR=7.6N, CJE=1.8E-12, VJE=0.89, MJE=0.49, 
+ CJC=3E-12, VJC=0.53, MJC=0.19, XCJC=0.23, 
+ CJS=4.52E-12, VJS=0.6, MJS=0.35, 
+ ITF=200E-3, VTF=10, XTF=4   
*
.ENDS
**********
*SRC=AMP-01;AMP-01;Inst. Amps;Analog Devices;Precision, Low Noise
*SYM=AMP-01
* AMP-01 SPICE Macro-model                 2/90, Rev. A
*                                          DFB / PMI
*
* Node assignments
*
*              rg(pin1)
*              |   rg(pin2)
*              |   |   inverting input
*              |   |   | sense
*              |   |   | |   reference
*              |   |   | |   |   output
*              |   |   | |   |   |                              
.SUBCKT AMP-01 207 206 2 210 209 32 211 50 99 212 214 216 3
*                                   |   |  |  |   |   |   |
*        output stage negative supply   |  |  |   |   |   |
*                 device negative supply   |  |   |   |   |
*                     device positive supply  |   |   |   |
*                  output stage positive supply   |   |   |
*                                                rs   |   |
*                                                    rs   |
*                                       non-inverting input
*input protection network
*
R201 3 204 250
R202 2 205 250
D202 206 204 DX
D203 207 205 DX
*
*input stage and resistive load
*
Q201 6 204 206 NX
Q202 5 205 207 NX
R3 99 6 30K
R4 99 5 30K
*
*common mode rejection term
*
R207 99 207 8E12
R208 50 207 8E12
*
*input offset current and input offset voltage
*
I202 99 204 150E-9
I203 3 50 149.5E-9
*
*output offset voltage
*
I201 99 201 40E-9
*
*feedback V-I converter
*
C2 201 202 120E-12
*c2 provides the second pole before the
*input stage to prevent spurious slew limiting
R203 209 201 47.5K
R204 201 203 2.5K
R205 202 203 2.5K
R206 210 202 47.5K
V203 203 50 0.57
E201 213 50 201 214 100K
Q203 206 213 214 NX
I204 214 50 100E-6
E202 215 50 202 216 100K
Q204 207 215 216 NX
I205 216 50 100E-6
D204 208 207 DX
D205 208 206 DX
V201 208 50 4
*
* output amplifier
*
R5 9 99 400E6
R6 9 50 400E6
C3 9 99 55E-12
C4 9 50 55E-12
G1 99 9 POLY(1) 5 6 1.7M 100E-6
G2 9 50 POLY(1) 6 5 1.7M 100E-6
V2 99 8 2.5
V3 10 50 2.5
D1 9 8 DX
D2 10 9 DX
D5 9 28 DX
D6 29 9 DX
R26 26 212 111E3
R27 26 211 111E3
R28 32 212 90
R29 32 211 90
G17 30 211 9 32 11.111E-3
G18 31 211 32 9 11.111E-3
G19 32 212 212 9 11.111E-3
G20 211 32 9 211 11.111E-3
V6 28 32 3
V7 32 29 3
D7 212 30 DX
D8 212 31 DX
D9 211 30 DY
D10 211 31 DY
I1 212 211 600E-6
*
* non-linear models
*
.MODEL DX D (IS=1E-15)
.MODEL DY D (IS=1E-15 BV=50)
.MODEL NX NPN (IS=1E-14 BF=1E5 RE=50)
.ENDS
**********
*SRC=AMP-02;AMP-02;Inst. Amps;Analog Devices;High Accuracy
*SYM=AMP-02
* AMP-02 SPICE Macro-model                 2/90, Rev. A
*                                          DFB / PMI
*
* Node assignments
*
*              rg1
*              |   inverting input
*              |   |   non-inverting input
*              |   |   |   negative supply
*              |   |   |   |  reference (ground usually)
*              |   |   |   |  |   output
*              |   |   |   |  |   |  positive supply
*              |   |   |   |  |   |  |  rg2                         
*              |   |   |   |  |   |  |  |
.SUBCKT AMP-02 207 202 203 50 205 32 99 208
*
*input protection network
*
J201 215 217 202 JX 40
J202 217 217 215 JX 40
J203 218 218 216 JX 40
J204 216 218 203 JX 40 
D201 215 220 DX
D202 219 215 DX
D203 219 216 DX
D204 216 220 DX
V202 219 50 3.6
V203 99 220 3.6
*
*input offset voltage
*
IVOS 215 50 100E-9 
*(this saves a node by using the protection FET's
*as offset voltage generators)
*
*input currents
*
IB1 99 202 97E-9 
*(the latter term is mostly compensation for IVOS)
IB2 203 50 1.8E-9
*
*input stage
*
Q201 210 213 207 50 NX
Q202 211 214 208 50 NX
E203 213 0 215 207 10K
E204 214 0 216 208 10K
I201 207 50 50E-6
I202 208 50 50.04E-6 
*(the 0.04U models the output offset voltage
*and saves yet another node)
*
*differential gain stage and pole
*
R201 251 207 25K
R202 250 208 25K
R203 99 210 20K
R204 99 211 20K
V201 99 212 1
RV201 99 212 1E6
E201 251 32 212 210 1E6
E202 250 32 212 211 1E6
C210 251 210 8E-12
C211 250 211 8E-12
*
*output resistor network
*
R208 32 2 25.002K
*(R208 is imbalanced to model CMRR)
R207 2 221 24K
R210 251 221 1K
R205 222 3 24K
R211 250 222 1K
R206 3 205 25K
V204 99 223 3
V205 224 50 3
D205 221 223 DX
D206 222 223 DX
D207 224 221 DX
D208 224 222 DX
*
* output amplifier
*
R3 5 50 1K
R4 6 50 1K
I1 99 4 200E-6
J1 5 2 4 JX
J2 6 3 4 JX
C2 5 6 30E-12
*
R5 9 99 180E6
R6 9 50 180E6
C3 9 99 40E-12
C4 9 50 40E-12
G1 99 9 POLY(1) 5 6 4.5M 1.4M
G2 9 50 POLY(1) 6 5 4.5M 1.4M
V2 99 8 2.5
V3 10 50 2.5
D1 9 8 DX
D2 10 9 DX
*
D5 9 28 DX
D6 29 9 DX
*
R26 26 99 111E3
R27 26 50 111E3
R28 27 99 300
R29 27 50 300
L3 27 32 1.1E-6
G17 30 50 9 27 3.333E-3
G18 31 50 27 9 3.333E-3
G19 27 99 99 9 3.333E-3
G20 50 27 9 50 3.333E-3
V6 28 27 2.6
V7 27 29 2.6
D7 99 30 DX
D8 99 31 DX
D9 50 30 DY
D10 50 31 DY
*
* non-linear models
*
.MODEL JX PJF (BETA=20E-6 VTO=-2.0 IS=1E-16)
.MODEL DX D (IS=1E-15)
.MODEL DY D (IS=1E-15 BV=50)
.MODEL NX NPN (IS=1E-16 BF=10000 RE=50)
.ENDS
**********
*SRC=MAT-02;MAT-02;BJT Arrays;Analog Devices;Dual NPN, Low Noise 1nV/RTHz
*SYM=MAT-02
* MAT-02 SPICE Macro-model                 4/90, Rev. A
*                                          DFB / PMI
*
* Node assignments
*              C1
*              | B1 
*              | | E1
*              | | | E2
*              | | | | B2
*              | | | | | C2
*              | | | | | |
.SUBCKT MAT-02 1 2 3 5 6 7
Q1   1  2  3   NMAT
Q2   7  6  5   NMAT
D1   3  2      DMAT1
D2   5  6      DMAT1
D3   4  3      DMAT1
D4   4  5      DMAT1
D5   4  1      DMAT2
D6   4  7      DMAT2
.MODEL    DMAT1  D(IS=2E-16 RS=20)
.MODEL    DMAT2  D(IS=1E-14 VJ=0.6 CJO=40E-12)
.MODEL    NMAT NPN(BF=500 IS=6E-13 VAF=150 BR=0.5 VAR=7
+ RB=13 RC=10 RE=0.3 CJE=82E-12 VJE=0.7 MJE=0.4 TF=0.3E-9 
+ TR=5E-9 CJC=33E-12 VJC=0.55 MJC=0.5 CJS=0 IKF=0.300
+ PTF=25)
.ENDS
**********
*SRC=MAT-03;MAT-03;BJT Arrays;Analog Devices;Dual PNP, Low Noise 1nV/RTHz
*SYM=MAT-03
* MAT-03 SPICE Macro-model                 10/88, Rev. B
*                                          DFB / PMI
*
* Node assignments
*              C1
*              | B1 
*              | | E1
*              | | | E2
*              | | | | B2
*              | | | | | C2
*              | | | | | |
.SUBCKT MAT-03 1 2 3 5 6 7
Q1   1  2  3   PMAT
Q2   7  6  5   PMAT
D1   2  3      DMAT1
D2   6  5      DMAT1
D3   3  4      DMAT1
D4   5  4      DMAT1
D5   1  4      DMAT2
D6   7  4      DMAT2
.MODEL    DMAT1  D(IS=7.2E-16 RS=20)
.MODEL    DMAT2  D(IS=1E-14 VJ=0.6 CJO=68E-12)
.MODEL    PMAT PNP(BF=160 IS=1.4E-13 VAF=60 BR=5 VAR=7 RB=16
+ RC=12 RE=0.35 CJE=57E-12 VJE=0.7 MJE=0.4 TF=1.08E-9 
+ TR=3E-8 CJC=40E-12 VJC=0.55 MJC=0.5 CJS=0 IKF=160M)
.ENDS
**********
*SRC=MAT-04;MAT-04;BJT Arrays;Analog Devices;Quad NPN, Excellent Matching
*SYM=MAT-04
* MAT-04 SPICE Macro-model                 4/90, Rev. A
*                                          DFB / PMI
*
* Node assignments
*              C1
*              | B1
*              | | E1
*              | | | SUBSTRATE (MAY BE FLOATED,OR
*              | | | | E2       PREFERABLY, CONNECTED
*              | | | | | B2     TO V-)
*              | | | | | | C2
*              | | | | | | | C3
*              | | | | | | | | B3
*              | | | | | | | | | E3
*              | | | | | | | | | |  E4
*              | | | | | | | | | |  |  B4
*              | | | | | | | | | |  |  |  C4
*              | | | | | | | | | |  |  |  |
.SUBCKT MAT-04 1 2 3 4 5 6 7 8 9 10 12 13 14
Q1   1  2  3   NMAT
Q2   7  6  5   NMAT
Q3   8  9  10  NMAT
Q4   14 13 12  NMAT
D1   3  2      DMAT1
D2   5  6      DMAT1
D3   10 9      DMAT1
D4   12 13     DMAT1
D5   4  3      DMAT1
D6   4  5      DMAT1
D7   4 10      DMAT1
D8   4 12      DMAT1
D9   4  1      DMAT2
D10  4  7      DMAT2
D11  4  8      DMAT2
D12  4  14     DMAT2
.MODEL    DMAT1  D(IS=2E-16 RS=20)
.MODEL    DMAT2  D(IS=5E-15 VJ=0.6 CJO=25E-12)
.MODEL    NMAT NPN(BF=500 IS=3E-13 VAF=150 BR=0.5 VAR=7 
+ RB=26 RC=16 RE=0.4 CJE=41E-12 VJE=0.7 MJE=0.4 TF=0.3E-9 
+ TR=5E-9 CJC=17E-12 VJC=0.55 MJC=0.5 CJS=0 IKF=0.150
+ PTF=25)
.ENDS
**********
*SRC=AD624;AD624;Inst. Amps;Analog Devices;Precision, Low Noise 4nV/RTHz
*SYM=ADAMP
* AD624 SPICE Macro-model                  9/91, Rev. A
*                                          ARG / PMI
*
* Node assignments
*
*              rg1
*              |  inverting input
*              |  |  non-inverting input
*              |  |  |  negative supply
*              |  |  |  |   reference (ground usually)
*              |  |  |  |   |   output
*              |  |  |  |   |   |   positive supply
*              |  |  |  |   |   |   |   rg2
*              |  |  |  |   |   |   |   |  sense
*              |  |  |  |   |   |   |   |  |
.SUBCKT AD624  5  1  2  50  17  32  99  8  11  42  41  40
*                                              |   |   |
*                                              |   |  G=500
*                                              |  G=200
*                                             G=100
*
* input stage
*
Q1   4    3    5    QX
Q2   7    6    8    QX
E1   9    11   16   4    50E3
E2   10   11   16   7    50E3
I1   99   4    50E-6
I2   99   7    50E-6
I3   5    50   50E-6
I4   8    50   50E-6
IOS  0    35   6.667E-9
R1   1    3    50
R2   2    35   50
R3   5    9    20E3
R4   8    10   20E3
VB   99   16   1
RB   99   16   1E6
C1   4    9    12E-12
C2   7    10   12E-12
D1   5    3    DX
D2   8    6    DX
VIOS 6    35   15E-6
EOOS 34   10   POLY(1) 22 26 1E-3 1
*
* output resistor network
*
R7   9    36   1E3   
R8   36   12   9E3
R9   11   12   10E3
R10  34   37   1E3
R11  13   37   9E3
R12  13   17   10E3
R30  5    40   80.2
R31  40   41   124
R32  41   42   225.3
R33  40   42   4445
V4   99   38   2.28
V5   39   50   2.28
D11  36   38   DX
D12  39   36   DX
D13  37   38   DX
D14  39   37   DX
*
* output amplifier
*
R5   14   50   1.989E3
R6   15   50   1.989E3
I5   99   18   200E-6
J1   14   12   18   JX
J2   15   13   18   JX
C3   14   15   41E-12
*
* common mode gain stage
*
EREF 98   0    26   0    1
E3   21   20   1    26   0.5
E4   20   98   2    26   0.5
R15  21   22   10E3
R16  22   98   1
C4   21   22   159E-9
*
* gain stage
*
R17  23   98   198.9E6
C5   23   98   40E-12
G1   98   23   14 15 502.66E-6
V2   99   24   2.986
V3   25   50   2.986
D3   23   24   DX
D4   25   23   DX
R26  26   99   75E3
R27  26   50   75E3
*
* output stage
*
ISY  99   50   3E-3
D5   23   28   DX
D6   29   23   DX
R28  27   99   60
R29  27   50   60
L1   27   32   1.0E-8
G17  30   50   23   27   16.667E-3
G18  31   50   27   23   16.667E-3
G19  27   99   99   23   16.667E-3
G20  50   27   23   50   16.667E-3
V6   28   27   -.013
V7   27   29   .707
D7   99   30   DX
D8   99   31   DX
D9   50   30   DY
D10  50   31   DY
*
* non-linear models
*
.MODEL JX PJF (BETA=631.66E-6 VTO=-2.0 IS=1E-16)
.MODEL DX D (IS=1E-15)
.MODEL DY D (IS=1E-15 BV=50)
.MODEL QX NPN (IS=1E-16 BF=5000 RE=50)
.ENDS
**********
*SRC=AD624A;AD624A;Inst. Amps;Analog Devices;Precision, Low Noise 4nV/RTHz
*SYM=ADAMP
* AD624A SPICE Macro-model                 9/91, Rev. A
*                                          ARG / PMI
*
* This version of the AD624 model simulates the worst case 
* parameters of the 'A' grade.  The worst case parameters
* used correspond to those in the data sheet.
*
* Node assignments
*
*              rg1
*              |  inverting input
*              |  |  non-inverting input
*              |  |  |  negative supply
*              |  |  |  |   reference (ground usually)
*              |  |  |  |   |   output
*              |  |  |  |   |   |   positive supply
*              |  |  |  |   |   |   |   rg2
*              |  |  |  |   |   |   |   |  sense
*              |  |  |  |   |   |   |   |  |
.SUBCKT AD624A 5  1  2  50  17  32  99  8  11  42  41  40
*                                              |   |   |
*                                              |   |  G=500
*                                              |  G=200
*                                             G=100
*
* input stage
*
Q1   4    3    5    QX
Q2   7    6    8    QX
E1   9    11   16   4    50E3
E2   10   11   16   7    50E3
I1   99   4    50E-6
I2   99   7    50E-6
I3   5    50   50E-6
I4   8    50   50E-6
IOS  0    35   35E-9
R1   1    3    50
R2   2    35   50
R3   5    9    20E3
R4   8    10   20E3
VB   99   16   1
RB   99   16   1E6
C1   4    9    12E-12
C2   7    10   12E-12
D1   5    3    DX
D2   8    6    DX
VIOS 6    35   200E-6
EOOS 34   10   POLY(1) 22 26 5E-3 1
*
* output resistor network
*
R7   9    36   1E3   
R8   36   12   9E3
R9   11   12   10E3
R10  34   37   1E3
R11  13   37   9E3
R12  13   17   10E3
R30  5    40   80.2
R31  40   41   124
R32  41   42   225.3
R33  40   42   4445
V4   99   38   2.28
V5   39   50   2.28
D11  36   38   DX
D12  39   36   DX
D13  37   38   DX
D14  39   37   DX
*
* output amplifier
*
R5   14   50   1.989E3
R6   15   50   1.989E3
I5   99   18   200E-6
J1   14   12   18   JX
J2   15   13   18   JX
C3   14   15   41E-12
*
* common mode gain stage
*
EREF 98   0    26   0    1
E3   21   20   1    26   0.5
E4   20   98   2    26   0.5
R15  21   22   3.162E3
R16  22   98   1
C4   21   22   503E-9
*
* gain stage
*
R17  23   98   198.9E6
C5   23   98   40E-12
G1   98   23   14 15 502.66E-6
V2   99   24   2.986
V3   25   50   2.986
D3   23   24   DX
D4   25   23   DX
R26  26   99   75E3
R27  26   50   75E3
*
* output stage
*
ISY  99   50   4.5E-3
D5   23   28   DX
D6   29   23   DX
R28  27   99   60
R29  27   50   60
L1   27   32   1.0E-8
G17  30   50   23   27   16.667E-3
G18  31   50   27   23   16.667E-3
G19  27   99   99   23   16.667E-3
G20  50   27   23   50   16.667E-3
V6   28   27   -.013
V7   27   29   .707
D7   99   30   DX
D8   99   31   DX
D9   50   30   DY
D10  50   31   DY
*
* non-linear models
*
.MODEL JX PJF (BETA=631.66E-6 VTO=-2.0 IS=1E-16)
.MODEL DX D (IS=1E-15)
.MODEL DY D (IS=1E-15 BV=50)
.MODEL QX NPN (IS=1E-16 BF=1000 RE=50)
.ENDS
**********
*SRC=AD624B;AD624B;Inst. Amps;Analog Devices;Precision, Low Noise 4nV/RTHz
*SYM=ADAMP
* AD624B SPICE Macro-model                 9/91, Rev. A
*                                          ARG / PMI
*
* This version of the AD624 model simulates the worst case 
* parameters of the 'B' grade.  The worst case parameters
* used correspond to those in the data sheet.
*
* Node assignments
*
*              rg1
*              |  inverting input
*              |  |  non-inverting input
*              |  |  |  negative supply
*              |  |  |  |   reference (ground usually)
*              |  |  |  |   |   output
*              |  |  |  |   |   |   positive supply
*              |  |  |  |   |   |   |   rg2
*              |  |  |  |   |   |   |   |  sense
*              |  |  |  |   |   |   |   |  |
.SUBCKT AD624B 5  1  2  50  17  32  99  8  11  42  41  40
*                                              |   |   |
*                                              |   |  G=500
*                                              |  G=200
*                                             G=100
*
* input stage
*
Q1   4    3    5    QX
Q2   7    6    8    QX
E1   9    11   16   4    50E3
E2   10   11   16   7    50E3
I1   99   4    50E-6
I2   99   7    50E-6
I3   5    50   50E-6
I4   8    50   50E-6
IOS  0    35   15E-9
R1   1    3    50
R2   2    35   50
R3   5    9    20E3
R4   8    10   20E3
VB   99   16   1
RB   99   16   1E6
C1   4    9    12E-12
C2   7    10   12E-12
D1   5    3    DX
D2   8    6    DX
VIOS 6    35   75E-6
EOOS 34   10   POLY(1) 22 26 3E-3 1
*
* output resistor network
*
R7   9    36   1E3   
R8   36   12   9E3
R9   11   12   10E3
R10  34   37   1E3
R11  13   37   9E3
R12  13   17   10E3
R30  5    40   80.2
R31  40   41   124
R32  41   42   225.3
R33  40   42   4445
V4   99   38   2.28
V5   39   50   2.28
D11  36   38   DX
D12  39   36   DX
D13  37   38   DX
D14  39   37   DX
*
* output amplifier
*
R5   14   50   1.989E3
R6   15   50   1.989E3
I5   99   18   200E-6
J1   14   12   18   JX
J2   15   13   18   JX
C3   14   15   41E-12
*
* common mode gain stage
*
EREF 98   0    26   0    1
E3   21   20   1    26   0.5
E4   20   98   2    26   0.5
R15  21   22   5.623E3
R16  22   98   1
C4   21   22   283E-9
*
* gain stage
*
R17  23   98   198.9E6
C5   23   98   40E-12
G1   98   23   14 15 502.66E-6
V2   99   24   2.986
V3   25   50   2.986
D3   23   24   DX
D4   25   23   DX
R26  26   99   75E3
R27  26   50   75E3
*
* output stage
*
ISY  99   50   4.5E-3
D5   23   28   DX
D6   29   23   DX
R28  27   99   60
R29  27   50   60
L1   27   32   1.0E-8
G17  30   50   23   27   16.667E-3
G18  31   50   27   23   16.667E-3
G19  27   99   99   23   16.667E-3
G20  50   27   23   50   16.667E-3
V6   28   27   -.013
V7   27   29   .707
D7   99   30   DX
D8   99   31   DX
D9   50   30   DY
D10  50   31   DY
*
* non-linear models
*
.MODEL JX PJF (BETA=631.66E-6 VTO=-2.0 IS=1E-16)
.MODEL DX D (IS=1E-15)
.MODEL DY D (IS=1E-15 BV=50)
.MODEL QX NPN (IS=1E-16 BF=2000 RE=50)
.ENDS
**********
*SRC=AD624C;AD624C;Inst. Amps;Analog Devices;Precision, Low Noise 4nV/RTHz
*SYM=ADAMP
* AD624C SPICE Macro-model                  9/91, Rev. A
*                                          ARG / PMI
*
* This version of the AD624 model simulates the worst case 
* parameters of the 'C' grade.  The worst case parameters
* used correspond to those in the data sheet.
*
* Node assignments
*
*              rg1
*              |  inverting input
*              |  |  non-inverting input
*              |  |  |  negative supply
*              |  |  |  |   reference (ground usually)
*              |  |  |  |   |   output
*              |  |  |  |   |   |   positive supply
*              |  |  |  |   |   |   |   rg2
*              |  |  |  |   |   |   |   |  sense
*              |  |  |  |   |   |   |   |  |
.SUBCKT AD624C  5  1  2  50  17  32  99  8  11  42  41  40
*                                              |   |   |
*                                              |   |  G=500
*                                              |  G=200
*                                             G=100
*
* input stage
*
Q1   4    3    5    QX
Q2   7    6    8    QX
E1   9    11   16   4    50E3
E2   10   11   16   7    50E3
I1   99   4    50E-6
I2   99   7    50E-6
I3   5    50   50E-6
I4   8    50   50E-6
IOS  0    35   10E-9
R1   1    3    50
R2   2    35   50
R3   5    9    20E3
R4   8    10   20E3
VB   99   16   1
RB   99   16   1E6
C1   4    9    12E-12
C2   7    10   12E-12
D1   5    3    DX
D2   8    6    DX
VIOS 6    35   25E-6
EOOS 34   10   POLY(1) 22 26 2E-3 1
*
* output resistor network
*
R7   9    36   1E3   
R8   36   12   9E3
R9   11   12   10E3
R10  34   37   1E3
R11  13   37   9E3
R12  13   17   10E3
R30  5    40   80.2
R31  40   41   124
R32  41   42   225.3
R33  40   42   4445
V4   99   38   2.28
V5   39   50   2.28
D11  36   38   DX
D12  39   36   DX
D13  37   38   DX
D14  39   37   DX
*
* output amplifier
*
R5   14   50   1.989E3
R6   15   50   1.989E3
I5   99   18   200E-6
J1   14   12   18   JX
J2   15   13   18   JX
C3   14   15   41E-12
*
* common mode gain stage
*
EREF 98   0    26   0    1
E3   21   20   1    26   0.5
E4   20   98   2    26   0.5
R15  21   22   10E3
R16  22   98   1
C4   21   22   159E-9
*
* gain stage
*
R17  23   98   198.9E6
C5   23   98   40E-12
G1   98   23   14 15 502.66E-6
V2   99   24   2.986
V3   25   50   2.986
D3   23   24   DX
D4   25   23   DX
R26  26   99   75E3
R27  26   50   75E3
*
* output stage
*
ISY  99   50   4.5E-3
D5   23   28   DX
D6   29   23   DX
R28  27   99   60
R29  27   50   60
L1   27   32   1.0E-8
G17  30   50   23   27   16.667E-3
G18  31   50   27   23   16.667E-3
G19  27   99   99   23   16.667E-3
G20  50   27   23   50   16.667E-3
V6   28   27   -.013
V7   27   29   .707
D7   99   30   DX
D8   99   31   DX
D9   50   30   DY
D10  50   31   DY
*
* non-linear models
*
.MODEL JX PJF (BETA=631.66E-6 VTO=-2.0 IS=1E-16)
.MODEL DX D (IS=1E-15)
.MODEL DY D (IS=1E-15 BV=50)
.MODEL QX NPN (IS=1E-16 BF=3333 RE=50)
.ENDS
**********
*SRC=AD624S;AD624S;Inst. Amps;Analog Devices;Precision, Low Noise 4nV/RTHz
*SYM=ADAMP
* AD624S SPICE Macro-model                 9/91, Rev. A
*                                          ARG / PMI
*
* This version of the AD624 model simulates the worst case 
* parameters of the 'S' grade.  The worst case parameters
* used correspond to those in the data sheet.
*
* Node assignments
*
*              rg1
*              |  inverting input
*              |  |  non-inverting input
*              |  |  |  negative supply
*              |  |  |  |   reference (ground usually)
*              |  |  |  |   |   output
*              |  |  |  |   |   |   positive supply
*              |  |  |  |   |   |   |   rg2
*              |  |  |  |   |   |   |   |  sense
*              |  |  |  |   |   |   |   |  |
.SUBCKT AD624S 5  1  2  50  17  32  99  8  11  42  41  40
*                                              |   |   |
*                                              |   |  G=500
*                                              |  G=200
*                                             G=100
*
* input stage
*
Q1   4    3    5    QX
Q2   7    6    8    QX
E1   9    11   16   4    50E3
E2   10   11   16   7    50E3
I1   99   4    50E-6
I2   99   7    50E-6
I3   5    50   50E-6
I4   8    50   50E-6
IOS  0    35   35E-9
R1   1    3    50
R2   2    35   50
R3   5    9    20E3
R4   8    10   20E3
VB   99   16   1
RB   99   16   1E6
C1   4    9    12E-12
C2   7    10   12E-12
D1   5    3    DX
D2   8    6    DX
VIOS 6    35   75E-6
EOOS 34   10   POLY(1) 22 26 3E-3 1
*
* output resistor network
*
R7   9    36   1E3   
R8   36   12   9E3
R9   11   12   10E3
R10  34   37   1E3
R11  13   37   9E3
R12  13   17   10E3
R30  5    40   80.2
R31  40   41   124
R32  41   42   225.3
R33  40   42   4445
V4   99   38   2.28
V5   39   50   2.28
D11  36   38   DX
D12  39   36   DX
D13  37   38   DX
D14  39   37   DX
*
* output amplifier
*
R5   14   50   1.989E3
R6   15   50   1.989E3
I5   99   18   200E-6
J1   14   12   18   JX
J2   15   13   18   JX
C3   14   15   41E-12
*
* common mode gain stage
*
EREF 98   0    26   0    1
E3   21   20   1    26   0.5
E4   20   98   2    26   0.5
R15  21   22   3.162E3
R16  22   98   1
C4   21   22   503E-9
*
* gain stage
*
R17  23   98   198.9E6
C5   23   98   40E-12
G1   98   23   14 15 502.66E-6
V2   99   24   2.986
V3   25   50   2.986
D3   23   24   DX
D4   25   23   DX
R26  26   99   75E3
R27  26   50   75E3
*
* output stage
*
ISY  99   50   4.5E-3
D5   23   28   DX
D6   29   23   DX
R28  27   99   60
R29  27   50   60
L1   27   32   1.0E-8
G17  30   50   23   27   16.667E-3
G18  31   50   27   23   16.667E-3
G19  27   99   99   23   16.667E-3
G20  50   27   23   50   16.667E-3
V6   28   27   -.013
V7   27   29   .707
D7   99   30   DX
D8   99   31   DX
D9   50   30   DY
D10  50   31   DY
*
* non-linear models
*
.MODEL JX PJF (BETA=631.66E-6 VTO=-2.0 IS=1E-16)
.MODEL DX D (IS=1E-15)
.MODEL DY D (IS=1E-15 BV=50)
.MODEL QX NPN (IS=1E-16 BF=1000 RE=50)
.ENDS
**********
*SRC=REF01;REF01;Voltage Ref.;Analog Devices;10V
*SYM=ADREF
* REF01 SPICE MACROMODEL                     5/91, Rev. A
*                                            (JCB / PMI)    
*
*  NODE NUMBERS
*               VIN
*               |  GND
*               |  |  TRIM
*               |  |  |  VOUT
*               |  |  |  |
.SUBCKT REF01   2  4  5  6
*
* 1.23V REFERENCE
*
I1     4  10   1.22889E-6
* Resistor with SPICE 2G.6 Temperature syntax
* R1     10  4   1000E3  TC = 3E-6
* Resistor with IsSpice3 Temperature syntax
R1     10  4   1000E3  RMOD
.MODEL RMOD R TC1=3E-6
*
G1     4  10   2  4  73.9E-12
F1     4  10   VS  61.5E-9
*
* INTERNAL OP AMP
*
G2     4  11   10  19  2E-3
R2     4  11   150E6
C1     4  11   2.1E-10
D1     11 12   DX
V1     2  12   1.3
*
* SECONDARY POLE
*
G3     4  13   11  0  1E-6
R3     4  13   1E6
C2     4  13   1.2E-13
*
* OUTPUT STAGE
*
ISY    2   4   0.38E-3
FSY    2   4   V1  -1 
G4     4  14   13  0  25E-6
R4     4  14   40E3
R7     17 19   14.2602E3
R8     19  4   2E3
R9     19  5   50E3
R10    5   4   1E12
Q1     16 14   17   QN
VS     18 17   DC 0
L1     18  6   1E-7
*
* OUTPUT CURRENT LIMIT
*
Q2     15  2   16  QN
R6     2  16   21
R5     2  15   18E3
C3     2  15   1E-6
G5     14  4   2  15  1
*
.MODEL  QN  NPN(IS=1E-15  BF=1000)
.MODEL  DX  D(IS=1E-15)
.ENDS
**********
*SRC=REF01A;REF01A;Voltage Ref.;Analog Devices;10V
*SYM=ADREF
* REF01A SPICE MACROMODEL                    5/91, Rev. A
*                                            (JCB / PMI)    
*
* This version of the REF01 model simulates the worst case 
* parameters of the 'A' grade.  The worst case parameters
* used correspond to those in the data sheet.
*
*  NODE NUMBERS
*               VIN
*               |  GND
*               |  |  TRIM
*               |  |  |  VOUT
*               |  |  |  |
.SUBCKT REF01A  2  4  5  6
*
* 1.23V REFERENCE
*
I1     4  10   537.719E-9
* Resistor with SPICE 2G.6 Temperature syntax
*R1     10  4   2.284E6  TC = 8.5E-6
* Resistor with IsSpice3 Temperature syntax
R1     10  4   2.284E6 RMOD
.MODEL RMOD R TC1=8.5E-6
*
G1     4  10   2  4  54.0E-12
F1     4  10   VS  43.2E-9
*
* INTERNAL OP AMP
*
G2     4  11   10  19  2E-3
R2     4  11   150E6
C1     4  11   2.1E-10
D1     11 12   DX
V1     2  12   2.0
*
* SECONDARY POLE
*
G3     4  13   11  0  1E-6
R3     4  13   1E6
C2     4  13   1.2E-13
*
* OUTPUT STAGE
*
ISY    2   4   0.78E-3
FSY    2   4   V1  -1 
G4     4  14   13  0  25E-6
R4     4  14   40E3
R7     17 19   14.2114E3
R8     19  4   2E3
R9     19  5   52.97E3
R10    5   4   1E12
Q1     16 14   17   QN
VS     18 17   DC 0
L1     18  6   1E-7
*
* OUTPUT CURRENT LIMIT
*
Q2     15  2   16  QN
R6     2  16   21
R5     2  15   18E3
C3     2  15   1E-6
G5     14  4   2  15  1
*
.MODEL  QN  NPN(IS=1E-15  BF=1000)
.MODEL  DX  D(IS=1E-15)
.ENDS
**********
*SRC=REF01C;REF01C;Voltage Ref.;Analog Devices;10V
*SYM=ADREF
* REF01C SPICE MACROMODEL                    5/91, Rev. A
*                                            (JCB / PMI)    
*
* This version of the REF01 model simulates the worst case 
* parameters of the 'C' grade.  The worst case parameters
* used correspond to those in the data sheet.
*
*  NODE NUMBERS
*               VIN
*               |  GND
*               |  |  TRIM
*               |  |  |  VOUT
*               |  |  |  |
.SUBCKT REF01C  2  4  5  6
*
* 1.23V REFERENCE
*
I1     4  10   386.887E-9
* Resistor with SPICE 2G.6 Temperature syntax
*R1     10  4   3.172E6  TC = 65E-6
* Resistor with IsSpice3 Temperature syntax
R1     10  4   3.172E6 RMOD
.MODEL RMOD R TC1=65E-6
*
G1     4  10   2  4  58.74E-12
F1     4  10   VS  58.74E-9
*
* INTERNAL OP AMP
*
G2     4  11   10  19  2E-3
R2     4  11   150E6
C1     4  11   2.1E-10
D1     11 12   DX
V1     2  12   2.0
*
* SECONDARY POLE
*
G3     4  13   11  0  1E-6
R3     4  13   1E6
C2     4  13   1.2E-13
*
* OUTPUT STAGE
*