**********
*SRC=AD734A;AD734A;Multipliers;Analog Devices;4 Quadrant, Accurate .1% err.
*SYM=ADMUL
* Node assignments
*   X1
*   |   X2
*   |   |   UO
*   |   |   |   U1
*   |   |   |   |   U2
*   |   |   |   |   |   Y1
*   |   |   |   |   |   |   Y2
*   |   |   |   |   |   |   |   VN
*   |   |   |   |   |   |   |   |   ER
*   |   |   |   |   |   |   |   |   |   Z2
*   |   |   |   |   |   |   |   |   |   |   Z1 
*   |   |   |   |   |   |   |   |   |   |   |   W
*   |   |   |   |   |   |   |   |   |   |   |   |   DD
*   |   |   |   |   |   |   |   |   |   |   |   |   |   VP 
*   |   |   |   |   |   |   |   |   |   |   |   |   |   |
.SUBCKT AD734A 10 11 49 50 51 20 21 200 58 31 30 77 54 100
*
EREF 300 0 POLY(2) 100 0 200 0  0 0.5 0.5 
*
* X INPUT STAGE & POLE AT 40 MHz
*
CINX 10 11 2E-12
IBX1 10 0 DC 200E-9
IBX2 11 0 DC 200E-9
EOSX 12 10 POLY(1) 18 300 15E-3 1
RX1 12 13 25E3
RX2 13 11 25E3
*
GX1 300 14 12 11 1E-6
RX3 14 300 9.98E5
CX1 14 300 3.9868E-15
VX1 100 15 DC 3.1875
DX1 14 15 DX
VX2 16 200 DC 3.1875
DX2 16 14 DX
*
* X INPUT STAGE COMMON-MODE REJECTION AND ZERO 225 kHz
*
ECMX 17 300 13 300 316.23
RCMX1 17 18 1E6
CCMX 17 18 707.56E-15
RCMX2 18 300 1
*
* Y INPUT STAGE & POLE AT 40 MHz
*
CINY 20 21 2E-12
IBY1 20 0 DC 200E-9
IBY2 21 0 DC 200E-9
EOSY 22 20 POLY(1) 28 300 10E-3 1
RY1 22 23 25E3
RY2 23 21 25E3
*
GY1 300 24 22 21 1E-6
RY3 24 300 9.98E5
CY1 24 300 3.9868E-15
VY1 100 25 DC 3.1875
DY1 24 25 DX
VY2 26 200 DC 3.1875
DY2 26 24 DX
*
* Y INPUT STAGE COMMON-MODE REJECTION AND ZERO 450 kHz
*
ECMY 27 300 23 300 316.23
RCMY1 27 28 1E6
CCMY 27 28 353.79E-15
RCMY2 28 300 1
*
* Z INPUT STAGE & POLE AT 40 MHz
*
CINZ 30 31 2E-12
IBZ1 30 0 DC 200E-9
IBZ2 31 0 DC 200E-9
EOSZ 32 30 POLY(1) 38 300 20E-3 1
RZ1 32 33 25E3
RZ2 33 31 25E3
*
GZ1 300 34 32 31 1E-6
RZ3 34 300 1E6
CZ1 34 300 3.9789E-15
VZ1 100 35 DC 3.1875
DZ1 34 35 DX
VZ2 36 200 DC 3.1875
DZ2 36 34 DX
*
* Z INPUT STAGE COMMON-MODE REJECTION AND ZERO 225 kHz
*
ECMZ 37 300 33 300 316.23
RCMZ1 37 38 1E6
CCMZ 37 38 707.56E-15
RCMZ2 38 300 1
*
* DENOMINATOR CONTROL & INTERNAL REFERENCE
*
QU1 100 49 50 QNU
RU1 50 51 28E3
*
VU 100 52
QU2 52 0 53 QNU
RU2 53 54 0.001
IU 53 200 DC 10E-6
FU1 300 55 VU 1.01
RU3 55 300 1E6
*
VR1 57 200 DC 8
QR 59 57 58 QPU
RR 57 58 1E5
VR2 59 200
FU4 300 56 VR2 1
RU4 56 300 28E3
*
EU 60 300 POLY(3) 50 51 55 300 56 300  0 1.0101 1 1.0101 
RU5 60 300 1E6
*
* 250 MHz MULTIPLIER CORE
*
EXY 46 300 POLY(2) 14 300 24 300  0 0 0 0 1 
RXY 46 300 1E6
GXY 300 47 46 300 1
GU 47 300 POLY(2) 60 300 47 300  0 0 0 0 1 
RU 47 300 1E12
CU 47 300 6.65E-9
EW 48 300 POLY(2) 47 300 34 300  0 1 -1 
RW 48 300 1E6
*
* OUTPUT AMP BUFFER
*
GW 64 300 48 300 1
QW1 100 0 61 QNW
QW2 200 0 62 QPW
QW3 63 62 64 QNW
QW4 65 61 64 QPW
RW1 100 63 1
RW2 65 200 1
IW1 100 62 DC 100E-6
IW2 61 200 DC 100E-6
VW1 100 66 DC 10
DW1 66 63 DX
VW2 67 200 DC 10
DW2 65 67 DX
*
* OUTPUT AMP GAIN STAGE
*
GW1 300 68 100 63 1
GW2 68 300 65 200 1
RW3 68 300 1.38E3
CW1 68 300 19E-9
VW3 100 69 DC 3.8
DW3 68 69 DX
VW4 70 200 DC 3.8
DW4 70 68 DX
*
* TRANSIENT SUPPLY CURRENT COMPENSATION
*
DCC1 80 100 DX
GCC 0 80 48 300 1
DCC2 0 80 DX
DEE1 81 0 DX
GEE 81 0 300 48 1
DEE2 200 81 DX
*
* POLE AT 17.5 MHz
*
GW3 300 71 68 300 1E-6
RW4 71 300 1E6
CW2 71 300 9.0946E-15
*
IDC 100 200 DC 7.0125E-3
RDC1 100 78 3.2E3
RDC2 78 200 3.2E3
DO1 100 72 DX
GO1 72 200 76 71 25E-3
DO2 200 72 DY
DO3 100 73 DX
GO2 73 200 71 76 25E-3
DO4 200 73 DY
VSC1 74 76 DC -0.2
DSC1 71 74 DX
VSC2 76 75 DC -0.2
DSC2 75 71 DX
GO3 76 100 100 71 25E-3
GO4 200 76 71 200 25E-3
RO1 100 76 40
RO2 76 200 40
LO 76 77 100E-9
*
* MODELS USED
*
.MODEL QNU NPN (BF=100 IS=1E-16)
.MODEL QPU PNP (BF=100 IS=1E-16)
.MODEL QNW NPN (BF=1E9 IS=1E-15)
.MODEL QPW PNP (BF=1E9 IS=1E-15)
.MODEL DX D(IS=1E-15)
.MODEL DY D(IS=1E-15 BV=50)
.ENDS 
**********
*SRC=AD734B;AD734B;Multipliers;Analog Devices;4 Quadrant, Accurate .1% err.
*SYM=ADMUL
* Node assignments
*   X1
*   |   X2
*   |   |   UO
*   |   |   |   U1
*   |   |   |   |   U2
*   |   |   |   |   |   Y1
*   |   |   |   |   |   |   Y2
*   |   |   |   |   |   |   |   VN
*   |   |   |   |   |   |   |   |   ER
*   |   |   |   |   |   |   |   |   |   Z2
*   |   |   |   |   |   |   |   |   |   |   Z1 
*   |   |   |   |   |   |   |   |   |   |   |   W
*   |   |   |   |   |   |   |   |   |   |   |   |   DD
*   |   |   |   |   |   |   |   |   |   |   |   |   |   VP 
*   |   |   |   |   |   |   |   |   |   |   |   |   |   |
.SUBCKT AD734B 10 11 49 50 51 20 21 200 58 31 30 77 54 100
*
EREF 300 0 POLY(2) 100 0 200 0  0 0.5 0.5 
*
* X INPUT STAGE & POLE AT 40 MHz
*
CINX 10 11 2E-12
IBX1 10 0 DC 200E-9
IBX2 11 0 DC 200E-9
EOSX 12 10 POLY(1) 18 300 5E-3 1
RX1 12 13 25E3
RX2 13 11 25E3
*
GX1 300 14 12 11 1E-6
RX3 14 300 9.9875E5
CX1 14 300 3.9839E-15
VX1 100 15 DC 3.1875
DX1 14 15 DX
VX2 16 200 DC 3.1875
DX2 16 14 DX
*
* X INPUT STAGE COMMON-MODE REJECTION AND ZERO 225 kHz
*
ECMX 17 300 13 300 316.23
RCMX1 17 18 1E6
CCMX 17 18 707.56E-15
RCMX2 18 300 1
*
* Y INPUT STAGE & POLE AT 40 MHz
*
CINY 20 21 2E-12
IBY1 20 0 DC 200E-9
IBY2 21 0 DC 200E-9
EOSY 22 20 POLY(1) 28 300 10E-3 1
RY1 22 23 25E3
RY2 23 21 25E3
*
GY1 300 24 22 21 1E-6
RY3 24 300 9.9875E5
CY1 24 300 3.9839E-15
VY1 100 25 DC 3.1875
DY1 24 25 DX
VY2 26 200 DC 3.1875
DY2 26 24 DX
*
* Y INPUT STAGE COMMON-MODE REJECTION AND ZERO 450 kHz
*
ECMY 27 300 23 300 316.23
RCMY1 27 28 1E6
CCMY 27 28 353.79E-15
RCMY2 28 300 1
*
* Z INPUT STAGE & POLE AT 40 MHz
*
CINZ 30 31 2E-12
IBZ1 30 0 DC 200E-9
IBZ2 31 0 DC 200E-9
EOSZ 32 30 POLY(1) 38 300 10E-3 1
RZ1 32 33 25E3
RZ2 33 31 25E3
*
GZ1 300 34 32 31 1E-6
RZ3 34 300 1E6
CZ1 34 300 3.9789E-15
VZ1 100 35 DC 3.1875
DZ1 34 35 DX
VZ2 36 200 DC 3.1875
DZ2 36 34 DX
*
* Z INPUT STAGE COMMON-MODE REJECTION AND ZERO 225 kHz
*
ECMZ 37 300 33 300 316.23
RCMZ1 37 38 1E6
CCMZ 37 38 707.56E-15
RCMZ2 38 300 1
*
* DENOMINATOR CONTROL & INTERNAL REFERENCE
*
QU1 100 49 50 QNU
RU1 50 51 28E3
*
VU 100 52
QU2 52 0 53 QNU
RU2 53 54 0.001
IU 53 200 DC 10E-6
FU1 300 55 VU 1.01
RU3 55 300 1E6
*
VR1 57 200 DC 8
QR 59 57 58 QPU
RR 57 58 1E5
VR2 59 200
FU4 300 56 VR2 1
RU4 56 300 28E3
*
EU 60 300 POLY(3) 50 51 55 300 56 300  0 1.0101 1 1.0101 
RU5 60 300 1E6
*
* 250 MHz MULTIPLIER CORE
*
EXY 46 300 POLY(2) 14 300 24 300  0 0 0 0 1 
RXY 46 300 1E6
GXY 300 47 46 300 1
GU 47 300 POLY(2) 60 300 47 300  0 0 0 0 1 
RU 47 300 1E12
CU 47 300 6.65E-9
EW 48 300 POLY(2) 47 300 34 300  0 1 -1 
RW 48 300 1E6
*
* OUTPUT AMP BUFFER
*
GW 64 300 48 300 1
QW1 100 0 61 QNW
QW2 200 0 62 QPW
QW3 63 62 64 QNW
QW4 65 61 64 QPW
RW1 100 63 1
RW2 65 200 1
IW1 100 62 DC 100E-6
IW2 61 200 DC 100E-6
VW1 100 66 DC 10
DW1 66 63 DX
VW2 67 200 DC 10
DW2 65 67 DX
*
* OUTPUT AMP GAIN STAGE
*
GW1 300 68 100 63 1
GW2 68 300 65 200 1
RW3 68 300 1.38E3
CW1 68 300 19E-9
VW3 100 69 DC 3.8
DW3 68 69 DX
VW4 70 200 DC 3.8
DW4 70 68 DX
*
* TRANSIENT SUPPLY CURRENT COMPENSATION
*
DCC1 80 100 DX
GCC 0 80 48 300 1
DCC2 0 80 DX
DEE1 81 0 DX
GEE 81 0 300 48 1
DEE2 200 81 DX
*
* POLE AT 17.5 MHz
*
GW3 300 71 68 300 1E-6
RW4 71 300 1E6
CW2 71 300 9.0946E-15
*
IDC 100 200 DC 7.0125E-3
RDC1 100 78 3.2E3
RDC2 78 200 3.2E3
DO1 100 72 DX
GO1 72 200 76 71 25E-3
DO2 200 72 DY
DO3 100 73 DX
GO2 73 200 71 76 25E-3
DO4 200 73 DY
VSC1 74 76 DC -0.2
DSC1 71 74 DX
VSC2 76 75 DC -0.2
DSC2 75 71 DX
GO3 76 100 100 71 25E-3
GO4 200 76 71 200 25E-3
RO1 100 76 40
RO2 76 200 40
LO 76 77 100E-9
*
* MODELS USED
*
.MODEL QNU NPN (BF=100 IS=1E-16)
.MODEL QPU PNP (BF=100 IS=1E-16)
.MODEL QNW NPN (BF=1E9 IS=1E-15)
.MODEL QPW PNP (BF=1E9 IS=1E-15)
.MODEL DX D(IS=1E-15)
.MODEL DY D(IS=1E-15 BV=50)
.ENDS 
**********
*SRC=AD734S;AD734S;Multipliers;Analog Devices;4 Quadrant, Accurate .1% err.
*SYM=ADMUL
* Node assignments
*   X1
*   |   X2
*   |   |   UO
*   |   |   |   U1
*   |   |   |   |   U2
*   |   |   |   |   |   Y1
*   |   |   |   |   |   |   Y2
*   |   |   |   |   |   |   |   VN
*   |   |   |   |   |   |   |   |   ER
*   |   |   |   |   |   |   |   |   |   Z2
*   |   |   |   |   |   |   |   |   |   |   Z1 
*   |   |   |   |   |   |   |   |   |   |   |   W
*   |   |   |   |   |   |   |   |   |   |   |   |   DD
*   |   |   |   |   |   |   |   |   |   |   |   |   |   VP 
*   |   |   |   |   |   |   |   |   |   |   |   |   |   |
.SUBCKT AD734S 10 11 49 50 51 20 21 200 58 31 30 77 54 100
*
EREF 300 0 POLY(2) 100 0 200 0  0 0.5 0.5 
*
* X INPUT STAGE & POLE AT 40 MHz
*
CINX 10 11 2E-12
IBX1 10 0 DC 300E-9
IBX2 11 0 DC 300E-9
EOSX 12 10 POLY(1) 18 300 15E-3 1
RX1 12 13 25E3
RX2 13 11 25E3
*
GX1 300 14 12 11 1E-6
RX3 14 300 9.98E5
CX1 14 300 3.9868E-15
VX1 100 15 DC 3.1875
DX1 14 15 DX
VX2 16 200 DC 3.1875
DX2 16 14 DX
*
* X INPUT STAGE COMMON-MODE REJECTION AND ZERO 225 kHz
*
ECMX 17 300 13 300 316.23
RCMX1 17 18 1E6
CCMX 17 18 707.56E-15
RCMX2 18 300 1
*
* Y INPUT STAGE & POLE AT 40 MHz
*
CINY 20 21 2E-12
IBY1 20 0 DC 300E-9
IBY2 21 0 DC 300E-9
EOSY 22 20 POLY(1) 28 300 10E-3 1
RY1 22 23 25E3
RY2 23 21 25E3
*
GY1 300 24 22 21 1E-6
RY3 24 300 9.98E5
CY1 24 300 3.9868E-15
VY1 100 25 DC 3.1875
DY1 24 25 DX
VY2 26 200 DC 3.1875
DY2 26 24 DX
*
* Y INPUT STAGE COMMON-MODE REJECTION AND ZERO 450 kHz
*
ECMY 27 300 23 300 316.23
RCMY1 27 28 1E6
CCMY 27 28 353.79E-15
RCMY2 28 300 1
*
* Z INPUT STAGE & POLE AT 40 MHz
*
CINZ 30 31 2E-12
IBZ1 30 0 DC 300E-9
IBZ2 31 0 DC 300E-9
EOSZ 32 30 POLY(1) 38 300 20E-3 1
RZ1 32 33 25E3
RZ2 33 31 25E3
*
GZ1 300 34 32 31 1E-6
RZ3 34 300 1E6
CZ1 34 300 3.9789E-15
VZ1 100 35 DC 3.1875
DZ1 34 35 DX
VZ2 36 200 DC 3.1875
DZ2 36 34 DX
*
* Z INPUT STAGE COMMON-MODE REJECTION AND ZERO 225 kHz
*
ECMZ 37 300 33 300 316.23
RCMZ1 37 38 1E6
CCMZ 37 38 707.56E-15
RCMZ2 38 300 1
*
* DENOMINATOR CONTROL & INTERNAL REFERENCE
*
QU1 100 49 50 QNU
RU1 50 51 28E3
*
VU 100 52
QU2 52 0 53 QNU
RU2 53 54 0.001
IU 53 200 DC 10E-6
FU1 300 55 VU 1.01
RU3 55 300 1E6
*
VR1 57 200 DC 8
QR 59 57 58 QPU
RR 57 58 1E5
VR2 59 200
FU4 300 56 VR2 1
RU4 56 300 28E3
*
EU 60 300 POLY(3) 50 51 55 300 56 300  0 1.0101 1 1.0101 
RU5 60 300 1E6
*
* 250 MHz MULTIPLIER CORE
*
EXY 46 300 POLY(2) 14 300 24 300  0 0 0 0 1 
RXY 46 300 1E6
GXY 300 47 46 300 1
GU 47 300 POLY(2) 60 300 47 300  0 0 0 0 1 
RU 47 300 1E12
CU 47 300 6.65E-9
EW 48 300 POLY(2) 47 300 34 300  0 1 -1 
RW 48 300 1E6
*
* OUTPUT AMP BUFFER
*
GW 64 300 48 300 1
QW1 100 0 61 QNW
QW2 200 0 62 QPW
QW3 63 62 64 QNW
QW4 65 61 64 QPW
RW1 100 63 1
RW2 65 200 1
IW1 100 62 DC 100E-6
IW2 61 200 DC 100E-6
VW1 100 66 DC 10
DW1 66 63 DX
VW2 67 200 DC 10
DW2 65 67 DX
*
* OUTPUT AMP GAIN STAGE
*
GW1 300 68 100 63 1
GW2 68 300 65 200 1
RW3 68 300 1.38E3
CW1 68 300 19E-9
VW3 100 69 DC 3.8
DW3 68 69 DX
VW4 70 200 DC 3.8
DW4 70 68 DX
*
* TRANSIENT SUPPLY CURRENT COMPENSATION
*
DCC1 80 100 DX
GCC 0 80 48 300 1
DCC2 0 80 DX
DEE1 81 0 DX
GEE 81 0 300 48 1
DEE2 200 81 DX
*
* POLE AT 17.5 MHz
*
GW3 300 71 68 300 1E-6
RW4 71 300 1E6
CW2 71 300 9.0946E-15
*
IDC 100 200 DC 7.0125E-3
RDC1 100 78 3.2E3
RDC2 78 200 3.2E3
DO1 100 72 DX
GO1 72 200 76 71 25E-3
DO2 200 72 DY
DO3 100 73 DX
GO2 73 200 71 76 25E-3
DO4 200 73 DY
VSC1 74 76 DC -0.2
DSC1 71 74 DX
VSC2 76 75 DC -0.2
DSC2 75 71 DX
GO3 76 100 100 71 25E-3
GO4 200 76 71 200 25E-3
RO1 100 76 40
RO2 76 200 40
LO 76 77 100E-9
*
* MODELS USED
*
.MODEL QNU NPN (BF=100 IS=1E-16)
.MODEL QPU PNP (BF=100 IS=1E-16)
.MODEL QNW NPN (BF=1E9 IS=1E-15)
.MODEL QPW PNP (BF=1E9 IS=1E-15)
.MODEL DX D(IS=1E-15)
.MODEL DY D(IS=1E-15 BV=50)
.ENDS 
**********
*SRC=AD743;AD743;Opamps;AD-"ADxxx";Ultralow Noise BiFET
*SYM=ADOPAMP
* Node assignments
*             non-inverting input
*             | inverting input
*             | |  positive supply
*             | |  |  negative supply
*             | |  |  |  output
*             | |  |  |  |
.SUBCKT AD743 1 2 99 50 37
*
* INPUT STAGE & POLE AT 65 MHz
*
IOS 1 2 DC 12.5E-12
CIN 1 2 20E-12
EOS 9 3 POLY(1) 16 31 100E-6 1
EN 3 1 41 0 1
J1 5 2 4 PJX
J2 6 9 4 PJX
R3 5 51 0.9323
R4 6 51 0.9323
C2 5 6 1.3132E-9
I1 97 4 100E-3
EPOS 97 0 99 0 1
ENEG 51 0 50 0 1
GN1 0 1 44 0 1E-6
GN2 0 2 47 0 1E-6
*
* INPUT NOISE VOLTAGE GENERATOR
*
VN1 40 0 DC 2
DN1 40 41 DEN
DN2 41 42 DEN
VN2 0 42 DC 2
*
* INPUT NOISE CURRENT GENERATOR FOR IN+
*
VN3 43 0 DC 2
DN3 43 44 DIN
DN4 44 45 DIN
VN4 0 45 DC 2
*
* INPUT NOISE CURRENT GENERATOR FOR IN-
*
VN5 46 0 DC 2
DN5 46 47 DIN
DN6 47 48 DIN
VN6 0 48 DC 2
*
* GAIN STAGE & DOMINANT POLE AT 1.195 Hz
*
EREF 98 0 31 0 1
G1 98 12 5 6 1.0726
R5 12 98 3.7292E6
C3 12 98 35.714E-9
V1 99 13 DC 187.5E-3
D1 12 13 DX
V2 14 50 DC 1.3375
D4 14 12 DX
*
* CMR Network with Zero at 600 Hz
*
ECM 15 98 POLY(2) 1 31 2 31  0 3.9717 3.9717 
RCM1 15 16 1
CCM 15 16 265.26E-6
RCM2 16 98 1E-6
*
* NEGATIVE ZERO AT -19.5 MHz
*
ENZ 17 98 12 31 1E6
RNZ1 17 18 -1
CNZ 17 18 8.1618E-9
RNZ2 18 98 -1E-6
*
* POLE-ZERO PAIR AT 330 kHz/690 kHz
*
GPZ 98 19 18 31 1
RPZ1 19 98 1
RPZ2 19 20 0.91667
CPZ 20 98 251.63E-9
*
* POLE AT 65 MHz
*
G2 98 21 19 31 1
R10 21 98 1
C5 21 98 2.4485E-9
*
* OUTPUT STAGE
*
VWIRE 21 30
*
IDC 99 50 DC 7.8E-3
RDC1 99 31 50E3
CDC 31 0 1E-12
RDC2 31 50 50E3
DO1 99 32 DX
GO1 32 50 36 30 5.5556E-3
DO2 50 32 DY
DO3 99 33 DX
GO2 33 50 30 36 5.5556E-3
DO4 50 33 DY
VSC1 34 36 3.1
DSC1 30 34 DX
VSC2 36 35 2.66
DSC2 35 30 DX
GO3 36 99 99 30 5.5556E-3
GO4 50 36 30 50 5.5556E-3
FO1 36 0 VSC1 1
FO2 0 36 VSC2 1
RO1 99 36 180
RO2 36 50 180
LO 36 37 250E-9
*
* MODELS USED
*
.MODEL PJX PJF(VTO=-2 BETA=5.7526 IS=150E-12)
.MODEL DEN D(IS=1E-12 RS=1.237E3 AF=1 KF=1.3772E-15)
.MODEL DIN D(IS=1E-12 RS=5.7483E3 AF=1 KF=7.7505E-15)
.MODEL DX D(IS=1E-15)
.MODEL DY D(IS=1E-15 BV=50)
.ENDS 
**********
*SRC=AD743A;AD743A;Opamps;AD-"ADxxx";Ultralow Noise BiFET
*SYM=ADOPAMP
* Node assignments
*              non-inverting input
*              | inverting input
*              | |  positive supply
*              | |  |  negative supply
*              | |  |  |  output
*              | |  |  |  |
.SUBCKT AD743A 1 2 99 50 37
*
* INPUT STAGE & POLE AT 65 MHz
*
IOS 1 2 DC 75E-12
CIN 1 2 20E-12
EOS 9 3 POLY(1) 16 31 800E-6 1
EN 3 1 41 0 1
J1 5 2 4 PJX
J2 6 9 4 PJX
R3 5 51 0.9323
R4 6 51 0.9323
C2 5 6 1.3132E-9
I1 97 4 100E-3
EPOS 97 0 99 0 1
ENEG 51 0 50 0 1
GN1 0 1 44 0 1E-6
GN2 0 2 47 0 1E-6
*
* INPUT NOISE VOLTAGE GENERATOR
*
VN1 40 0 DC 2
DN1 40 41 DEN
DN2 41 42 DEN
VN2 0 42 DC 2
*
* INPUT NOISE CURRENT GENERATOR FOR IN+
*
VN3 43 0 DC 2
DN3 43 44 DIN
DN4 44 45 DIN
VN4 0 45 DC 2
*
* INPUT NOISE CURRENT GENERATOR FOR IN-
*
VN5 46 0 DC 2
DN5 46 47 DIN
DN6 47 48 DIN
VN6 0 48 DC 2
*
* GAIN STAGE & DOMINANT POLE AT 4.78 Hz
*
EREF 98 0 31 0 1
G1 98 12 5 6 1.0726
R5 12 98 9.32314E5
C3 12 98 35.714E-9
V1 99 13 DC 0.8
D1 12 13 DX
V2 14 50 DC 2
D4 14 12 DX
*
* CMR Network with Zero at 7.554 kHz
*
ECM 15 98 POLY(2) 1 31 2 31  0 50 50 
RCM1 15 16 1
CCM 15 16 2.107E-5
RCM2 16 98 1E-6
*
* NEGATIVE ZERO AT -19.5 MHz
*
ENZ 17 98 12 31 1E6
RNZ1 17 18 -1
CNZ 17 18 8.1618E-9
RNZ2 18 98 -1E-6
*
* POLE-ZERO PAIR AT 330 kHz/690 kHz
*
GPZ 98 19 18 31 1
RPZ1 19 98 1
RPZ2 19 20 0.91667
CPZ 20 98 251.63E-9
*
* POLE AT 65 MHz
*
G2 98 21 19 31 1
R10 21 98 1
C5 21 98 2.4485E-9
*
* OUTPUT STAGE
*
VWIRE 21 30
*
IDC 99 50 DC 9.7E-3
RDC1 99 31 50E3
CDC 31 0 1E-12
RDC2 31 50 50E3
DO1 99 32 DX
GO1 32 50 36 30 5.5556E-3
DO2 50 32 DY
DO3 99 33 DX
GO2 33 50 30 36 5.5556E-3
DO4 50 33 DY
VSC1 34 36 3.1
DSC1 30 34 DX
VSC2 36 35 2.66
DSC2 35 30 DX
GO3 36 99 99 30 5.5556E-3
GO4 50 36 30 50 5.5556E-3
FO1 36 0 VSC1 1
FO2 0 36 VSC2 1
RO1 99 36 180
RO2 36 50 180
LO 36 37 250E-9
*
* MODELS USED
*
.MODEL PJX PJF(VTO=-2 BETA=5.7526 IS=400E-12)
.MODEL DEN D(IS=1E-12 RS=1.237E3 AF=1 KF=1.3772E-15)
.MODEL DIN D(IS=1E-12 RS=5.7483E3 AF=1 KF=7.7505E-15)
.MODEL DX D(IS=1E-15)
.MODEL DY D(IS=1E-15 BV=50)
.ENDS 
**********
*SRC=AD743B;AD743B;Opamps;AD-"ADxxx";Ultralow Noise BiFET
*SYM=ADOPAMP
* Node assignments
*              non-inverting input
*              | inverting input
*              | |  positive supply
*              | |  |  negative supply
*              | |  |  |  output
*              | |  |  |  |
.SUBCKT AD743B 1 2 99 50 37
*
* INPUT STAGE & POLE AT 65 MHz
*
IOS 1 2 DC 37.5E-12
CIN 1 2 20E-12
EOS 9 3 POLY(1) 16 31 250E-6 1
EN 3 1 41 0 1
J1 5 2 4 PJX
J2 6 9 4 PJX
R3 5 51 0.9323
R4 6 51 0.9323
C2 5 6 1.3132E-9
I1 97 4 100E-3
EPOS 97 0 99 0 1
ENEG 51 0 50 0 1
GN1 0 1 44 0 1E-6
GN2 0 2 47 0 1E-6
*
* INPUT NOISE VOLTAGE GENERATOR
*
VN1 40 0 DC 2
DN1 40 41 DEN
DN2 41 42 DEN
VN2 0 42 DC 2
*
* INPUT NOISE CURRENT GENERATOR FOR IN+
*
VN3 43 0 DC 2
DN3 43 44 DIN
DN4 44 45 DIN
VN4 0 45 DC 2
*
* INPUT NOISE CURRENT GENERATOR FOR IN-
*
VN5 46 0 DC 2
DN5 46 47 DIN
DN6 47 48 DIN
VN6 0 48 DC 2
*
* GAIN STAGE & DOMINANT POLE AT 2.39 Hz
*
EREF 98 0 31 0 1
G1 98 12 5 6 1.0726
R5 12 98 1.8646E6
C3 12 98 35.714E-9
V1 99 13 DC 0.8
D1 12 13 DX
V2 14 50 DC 2
D4 14 12 DX
*
* CMR Network with Zero at 2.388 kHz
*
ECM 15 98 POLY(2) 1 31 2 31  0 15.812 15.812 
RCM1 15 16 1
CCM 15 16 6.663E-5
RCM2 16 98 1E-6
*
* NEGATIVE ZERO AT -19.5 MHz
*
ENZ 17 98 12 31 1E6
RNZ1 17 18 -1
CNZ 17 18 8.1618E-9
RNZ2 18 98 -1E-6
*
* POLE-ZERO PAIR AT 330 kHz/690 kHz
*
GPZ 98 19 18 31 1
RPZ1 19 98 1
RPZ2 19 20 0.91667
CPZ 20 98 251.63E-9
*
* POLE AT 65 MHz
*
G2 98 21 19 31 1
R10 21 98 1
C5 21 98 2.4485E-9
*
* OUTPUT STAGE
*
VWIRE 21 30
*
IDC 99 50 DC 9.7E-3
RDC1 99 31 50E3
CDC 31 0 1E-12
RDC2 31 50 50E3
DO1 99 32 DX
GO1 32 50 36 30 5.5556E-3
DO2 50 32 DY
DO3 99 33 DX
GO2 33 50 30 36 5.5556E-3
DO4 50 33 DY
VSC1 34 36 3.1
DSC1 30 34 DX
VSC2 36 35 2.66
DSC2 35 30 DX
GO3 36 99 99 30 5.5556E-3
GO4 50 36 30 50 5.5556E-3
FO1 36 0 VSC1 1
FO2 0 36 VSC2 1
RO1 99 36 180
RO2 36 50 180
LO 36 37 250E-9
*
* MODELS USED
*
.MODEL PJX PJF(VTO=-2 BETA=5.7526 IS=250E-12)
.MODEL DEN D(IS=1E-12 RS=1.237E3 AF=1 KF=1.3772E-15)
.MODEL DIN D(IS=1E-12 RS=5.7483E3 AF=1 KF=7.7505E-15)
.MODEL DX D(IS=1E-15)
.MODEL DY D(IS=1E-15 BV=50)
.ENDS 
**********
*SRC=AD743J;AD743J;Opamps;AD-"ADxxx";Ultralow Noise BiFET
*SYM=ADOPAMP
* Node assignments
*              non-inverting input
*              | inverting input
*              | |  positive supply
*              | |  |  negative supply
*              | |  |  |  output
*              | |  |  |  |
.SUBCKT AD743J 1 2 99 50 37
*
* INPUT STAGE & POLE AT 65 MHz
*
IOS 1 2 DC 75E-12
CIN 1 2 20E-12
EOS 9 3 POLY(1) 16 31 1E-3 1
EN 3 1 41 0 1
J1 5 2 4 PJX
J2 6 9 4 PJX
R3 5 51 0.9323
R4 6 51 0.9323
C2 5 6 1.3132E-9
I1 97 4 100E-3
EPOS 97 0 99 0 1
ENEG 51 0 50 0 1
GN1 0 1 44 0 1E-6
GN2 0 2 47 0 1E-6
*
* INPUT NOISE VOLTAGE GENERATOR
*
VN1 40 0 DC 2
DN1 40 41 DEN
DN2 41 42 DEN
VN2 0 42 DC 2
*
* INPUT NOISE CURRENT GENERATOR FOR IN+
*
VN3 43 0 DC 2
DN3 43 44 DIN
DN4 44 45 DIN
VN4 0 45 DC 2
*
* INPUT NOISE CURRENT GENERATOR FOR IN-
*
VN5 46 0 DC 2
DN5 46 47 DIN
DN6 47 48 DIN
VN6 0 48 DC 2
*
* GAIN STAGE & DOMINANT POLE AT 4.78 Hz
*
EREF 98 0 31 0 1
G1 98 12 5 6 1.0726
R5 12 98 9.32314E5
C3 12 98 35.714E-9
V1 99 13 DC 0.8
D1 12 13 DX
V2 14 50 DC 2
D4 14 12 DX
*
* CMR Network with Zero at 7.554 kHz
*
ECM 15 98 POLY(2) 1 31 2 31  0 50 50 
RCM1 15 16 1
CCM 15 16 2.107E-5
RCM2 16 98 1E-6
*
* NEGATIVE ZERO AT -19.5 MHz
*
ENZ 17 98 12 31 1E6
RNZ1 17 18 -1
CNZ 17 18 8.1618E-9
RNZ2 18 98 -1E-6
*
* POLE-ZERO PAIR AT 330 kHz/690 kHz
*
GPZ 98 19 18 31 1
RPZ1 19 98 1
RPZ2 19 20 0.91667
CPZ 20 98 251.63E-9
*
* POLE AT 65 MHz
*
G2 98 21 19 31 1
R10 21 98 1
C5 21 98 2.4485E-9
*
* OUTPUT STAGE
*
VWIRE 21 30
*
IDC 99 50 DC 9.7E-3
RDC1 99 31 50E3
CDC 31 0 1E-12
RDC2 31 50 50E3
DO1 99 32 DX
GO1 32 50 36 30 5.5556E-3
DO2 50 32 DY
DO3 99 33 DX
GO2 33 50 30 36 5.5556E-3
DO4 50 33 DY
VSC1 34 36 3.1
DSC1 30 34 DX
VSC2 36 35 2.66
DSC2 35 30 DX
GO3 36 99 99 30 5.5556E-3
GO4 50 36 30 50 5.5556E-3
FO1 36 0 VSC1 1
FO2 0 36 VSC2 1
RO1 99 36 180
RO2 36 50 180
LO 36 37 250E-9
*
* MODELS USED
*
.MODEL PJX PJF(VTO=-2 BETA=5.7526 IS=400E-12)
.MODEL DEN D(IS=1E-12 RS=1.237E3 AF=1 KF=1.3772E-15)
.MODEL DIN D(IS=1E-12 RS=5.7483E3 AF=1 KF=7.7505E-15)
.MODEL DX D(IS=1E-15)
.MODEL DY D(IS=1E-15 BV=50)
.ENDS 
**********
*SRC=AD743K;AD743K;Opamps;AD-"ADxxx";Ultralow Noise BiFET
*SYM=ADOPAMP
* Node assignments
*              non-inverting input
*              | inverting input
*              | |  positive supply
*              | |  |  negative supply
*              | |  |  |  output
*              | |  |  |  |
.SUBCKT AD743K 1 2 99 50 37
*
* INPUT STAGE & POLE AT 65 MHz
*
IOS 1 2 DC 37.5E-12
CIN 1 2 20E-12
EOS 9 3 POLY(1) 16 31 500E-6 1
EN 3 1 41 0 1
J1 5 2 4 PJX
J2 6 9 4 PJX
R3 5 51 0.9323
R4 6 51 0.9323
C2 5 6 1.3132E-9
I1 97 4 100E-3
EPOS 97 0 99 0 1
ENEG 51 0 50 0 1
GN1 0 1 44 0 1E-6
GN2 0 2 47 0 1E-6
*
* INPUT NOISE VOLTAGE GENERATOR
*
VN1 40 0 DC 2
DN1 40 41 DEN
DN2 41 42 DEN
VN2 0 42 DC 2
*
* INPUT NOISE CURRENT GENERATOR FOR IN+
*
VN3 43 0 DC 2
DN3 43 44 DIN
DN4 44 45 DIN
VN4 0 45 DC 2
*
* INPUT NOISE CURRENT GENERATOR FOR IN-
*
VN5 46 0 DC 2
DN5 46 47 DIN
DN6 47 48 DIN
VN6 0 48 DC 2
*
* GAIN STAGE & DOMINANT POLE AT 2.39 Hz
*
EREF 98 0 31 0 1
G1 98 12 5 6 1.0726
R5 12 98 1.8646E6
C3 12 98 35.714E-9
V1 99 13 DC 0.8
D1 12 13 DX
V2 14 50 DC 2
D4 14 12 DX
*
* CMR Network with Zero at 2.388 kHz
*
ECM 15 98 POLY(2) 1 31 2 31  0 15.812 15.812 
RCM1 15 16 1
CCM 15 16 6.663E-5
RCM2 16 98 1E-6
*
* NEGATIVE ZERO AT -19.5 MHz
*
ENZ 17 98 12 31 1E6
RNZ1 17 18 -1
CNZ 17 18 8.1618E-9
RNZ2 18 98 -1E-6
*
* POLE-ZERO PAIR AT 330 kHz/690 kHz
*
GPZ 98 19 18 31 1
RPZ1 19 98 1
RPZ2 19 20 0.91667
CPZ 20 98 251.63E-9
*
* POLE AT 65 MHz
*
G2 98 21 19 31 1
R10 21 98 1
C5 21 98 2.4485E-9
*
* OUTPUT STAGE
*
VWIRE 21 30
*
IDC 99 50 DC 9.7E-3
RDC1 99 31 50E3
CDC 31 0 1E-12
RDC2 31 50 50E3
DO1 99 32 DX
GO1 32 50 36 30 5.5556E-3
DO2 50 32 DY
DO3 99 33 DX
GO2 33 50 30 36 5.5556E-3
DO4 50 33 DY
VSC1 34 36 3.1
DSC1 30 34 DX
VSC2 36 35 2.66
DSC2 35 30 DX
GO3 36 99 99 30 5.5556E-3
GO4 50 36 30 50 5.5556E-3
FO1 36 0 VSC1 1
FO2 0 36 VSC2 1
RO1 99 36 180
RO2 36 50 180
LO 36 37 250E-9
*
* MODELS USED
*
.MODEL PJX PJF(VTO=-2 BETA=5.7526 IS=250E-12)
.MODEL DEN D(IS=1E-12 RS=1.237E3 AF=1 KF=1.3772E-15)
.MODEL DIN D(IS=1E-12 RS=5.7483E3 AF=1 KF=7.7505E-15)
.MODEL DX D(IS=1E-15)
.MODEL DY D(IS=1E-15 BV=50)
.ENDS 
**********
*SRC=AD743S;AD743S;Opamps;AD-"ADxxx";Ultralow Noise BiFET
*SYM=ADOPAMP
* Node assignments
*              non-inverting input
*              | inverting input
*              | |  positive supply
*              | |  |  negative supply
*              | |  |  |  output
*              | |  |  |  |
.SUBCKT AD743S 1 2 99 50 37
*
* INPUT STAGE & POLE AT 65 MHz
*
IOS 1 2 DC 75E-12
CIN 1 2 20E-12
EOS 9 3 POLY(1) 16 31 1E-3 1
EN 3 1 41 0 1
J1 5 2 4 PJX
J2 6 9 4 PJX
R3 5 51 0.9323
R4 6 51 0.9323
C2 5 6 1.3132E-9
I1 97 4 100E-3
EPOS 97 0 99 0 1
ENEG 51 0 50 0 1
GN1 0 1 44 0 1E-6
GN2 0 2 47 0 1E-6
*
* INPUT NOISE VOLTAGE GENERATOR
*
VN1 40 0 DC 2
DN1 40 41 DEN
DN2 41 42 DEN
VN2 0 42 DC 2
*
* INPUT NOISE CURRENT GENERATOR FOR IN+
*
VN3 43 0 DC 2
DN3 43 44 DIN
DN4 44 45 DIN
VN4 0 45 DC 2
*
* INPUT NOISE CURRENT GENERATOR FOR IN-
*
VN5 46 0 DC 2
DN5 46 47 DIN
DN6 47 48 DIN
VN6 0 48 DC 2
*
* GAIN STAGE & DOMINANT POLE AT 4.78 Hz
*
EREF 98 0 31 0 1
G1 98 12 5 6 1.0726
R5 12 98 9.32314E5
C3 12 98 35.714E-9
V1 99 13 DC 0.8
D1 12 13 DX
V2 14 50 DC 2
D4 14 12 DX
*
* CMR Network with Zero at 7.554 kHz
*
ECM 15 98 POLY(2) 1 31 2 31  0 50 50 
RCM1 15 16 1
CCM 15 16 2.107E-5
RCM2 16 98 1E-6
*
* NEGATIVE ZERO AT -19.5 MHz
*
ENZ 17 98 12 31 1E6
RNZ1 17 18 -1
CNZ 17 18 8.1618E-9
RNZ2 18 98 -1E-6
*
* POLE-ZERO PAIR AT 330 kHz/690 kHz
*
GPZ 98 19 18 31 1
RPZ1 19 98 1
RPZ2 19 20 0.91667
CPZ 20 98 251.63E-9
*
* POLE AT 65 MHz
*
G2 98 21 19 31 1
R10 21 98 1
C5 21 98 2.4485E-9
*
* OUTPUT STAGE
*
VWIRE 21 30
*
IDC 99 50 DC 9.7E-3
RDC1 99 31 50E3
CDC 31 0 1E-12
RDC2 31 50 50E3
DO1 99 32 DX
GO1 32 50 36 30 5.5556E-3
DO2 50 32 DY
DO3 99 33 DX
GO2 33 50 30 36 5.5556E-3
DO4 50 33 DY
VSC1 34 36 3.1
DSC1 30 34 DX
VSC2 36 35 2.66
DSC2 35 30 DX
GO3 36 99 99 30 5.5556E-3
GO4 50 36 30 50 5.5556E-3
FO1 36 0 VSC1 1
FO2 0 36 VSC2 1
RO1 99 36 180
RO2 36 50 180
LO 36 37 250E-9
*
* MODELS USED
*
.MODEL PJX PJF(VTO=-2 BETA=5.7526 IS=400E-12)
.MODEL DEN D(IS=1E-12 RS=1.237E3 AF=1 KF=1.3772E-15)
.MODEL DIN D(IS=1E-12 RS=5.7483E3 AF=1 KF=7.7505E-15)
.MODEL DX D(IS=1E-15)
.MODEL DY D(IS=1E-15 BV=50)
.ENDS 
**********
*SRC=AD745;AD745;Opamps;AD-"ADxxx";
*SYM=ADOPAMP
* Node assignments
*                non-inverting input
*                |  inverting input
*                |  |  positive supply
*                |  |  |  negative supply
*                |  |  |  |  output
*                |  |  |  |  |
.SUBCKT AD745    3  2  99 50 37
*
* INPUT STAGE AND POLE AT 54MHZ
*
I1   97   1    1
J1   5    2    1    JX
J2   6    4    1    JX
CIN  2    3    20E-12
IOS  3    2    15E-12
EN   7    3    9 0 1
GN1  0    2    12 0 1E-6
GN2  0    3    15 0 1E-6
EOS  4    7    POLY(1) 31 52 100E-6 1
R1   5    51   86.842E-3
R2   6    51   86.842E-3
C1   5    6    16.969E-9
EPOS 97   0    99 0 1
ENEG 51   0    50 0 1
EREF 98   0    52 0 1
*
* VOLTAGE NOISE SOURCE WITH FLICKER NOISE
*
VN1  8    0    DC 2
VN2  0    10   DC 2
DN1  8    9    DEN
DN2  9    10   DEN
*
* CURRENT NOISE SOURCE WITH FLICKER NOISE
*
VN3  11   0    DC 10
VN4  0    13   DC 10
DN3  11   12   DIN
DN4  12   13   DIN
*
* CURRENT NOISE SOURCE WITH FLICKER NOISE
*
VN5  14   0    DC 10
VN6  0    16   DC 10
DN5  14   15   DIN
DN6  15   16   DIN
*
* GAIN STAGE AND DOMINANT POLE AT 5.727HZ
*
R3   17   98   347.368E3
C2   17   98   80E-9
G1   98   17   5 6 11.515
V1   97   18   .027
V2   19   51   1.193
D1   17   18   DX
D2   19   17   DX
*
* POLE AT 30MHZ
*
R4   23   98   1
C3   23   98   5.305E-9
G2   98   23   17 52 1
*
* POLE AT 30MHZ
*
R5   24   98   1
C4   24   98   5.305E-9
G3   98   24   23 52 1
*
* NEGATIVE ZERO AT -54MHZ
*
R6   25   26   1
*C5   25   26   -2.947E-9
R7   26   98   1E-6
E1   25   98   24 52 1E6
VX1  84    0
EX1  83    0   25  26  1
FX1  25   26   VX1  -1
CX1  83   84  2.947E-9
*
* POLE / ZERO AT 2MHZ / 2.25MHZ
*
R8   27   98   1
R9   27   28   8
C6   28   98   8.842E-9
G4   98   27   26 52 1
*
* COMMON MODE GAIN STAGE WITH ZERO AT 10KHZ
*
E2   29   30   2 52 0.5
E3   30   98   3 52 0.5
R10  29   31   1
R11  31   98   7.943E-6
C7   29   31   15.916E-6
*
* REFERENCE NODE AND OUTPUT STAGE
*
RMP1 97   52   1
RMP2 52   51   1
GSY  99   50   POLY(1) 99 50 7.625E-3 12.5E-6
R13  99   36   200
R14  36   50   200
L1   36   37   1E-10
G5   34   50   27 36 5E-3
G6   35   50   36 27 5E-3
G7   36   99   99 27 5E-3
G8   50   36   27 50 5E-3
V3   32   36   2.922
V4   36   33   1.460
D3   27   32   DX
D4   33   27   DX
D5   99   34   DX
D6   99   35   DX
D7   50   34   DY
D8   50   35   DY
F1   36   0    V3 1
F2   0    36   V4 1
*
* MODELS USED
*
.MODEL JX PJF(BETA=66.299 VTO=-1.5 IS=150E-12
.MODEL DX D(IS=1E-15)
.MODEL DY D(IS=1E-15 BV=50)
.MODEL DEN D(RS=1.015E3 KF=4.311E-15 AF=1)
.MODEL DIN D(RS=5.277E3 KF=42.593E-15 AF=1)
.ENDS 
**********
*SRC=AD745A;AD745A;Opamps;AD-"ADxxx";
*SYM=ADOPAMP
* Node assignments
*                non-inverting input
*                |  inverting input
*                |  |  positive supply
*                |  |  |  negative supply
*                |  |  |  |  output
*                |  |  |  |  |
.SUBCKT AD745A   3  2  99 50 37
*
* INPUT STAGE AND POLE AT 54MHZ
*
I1   97   1    1
J1   5    2    1    JX
J2   6    4    1    JX
CIN  2    3    20E-12
IOS  3    2    75E-12
EN   7    3    9 0 1
GN1  0    2    12 0 1E-6
GN2  0    3    15 0 1E-6
EOS  4    7    POLY(1) 31 52 800E-6 1
R1   5    51   86.842E-3
R2   6    51   86.842E-3
C1   5    6    16.969E-9
EPOS 97   0    99 0 1
ENEG 51   0    50 0 1
EREF 98   0    52 0 1
*
* VOLTAGE NOISE SOURCE WITH FLICKER NOISE
*
VN1  8    0    DC 2
VN2  0    10   DC 2
DN1  8    9    DEN
DN2  9    10   DEN
*
* CURRENT NOISE SOURCE WITH FLICKER NOISE
*
VN3  11   0    DC 10
VN4  0    13   DC 10
DN3  11   12   DIN
DN4  12   13   DIN
*
* CURRENT NOISE SOURCE WITH FLICKER NOISE
*
VN5  14   0    DC 10
VN6  0    16   DC 10
DN5  14   15   DIN
DN6  15   16   DIN
*
* GAIN STAGE AND DOMINANT POLE AT 22.9HZ
*
R3   17   98   86.842E3
C2   17   98   80E-9
G1   98   17   5 6 11.515
V1   97   18   .727
V2   19   51   1.893
D1   17   18   DX
D2   19   17   DX
*
* POLE AT 30MHZ
*
R4   23   98   1
C3   23   98   5.305E-9
G2   98   23   17 52 1
*
* POLE AT 30MHZ
*
R5   24   98   1
C4   24   98   5.305E-9
G3   98   24   23 52 1
*
* NEGATIVE ZERO AT -54MHZ
*
R6   25   26   -1
C5   25   26   2.947E-9
R7   26   98   -1E-6
E1   25   98   24 52 1E6
*
* POLE / ZERO AT 2MHZ / 2.25MHZ
*
R8   27   98   1
R9   27   28   8
C6   28   98   8.842E-9
G4   98   27   26 52 1
*
* COMMON MODE GAIN STAGE WITH ZERO AT 126KHZ
*
E2   29   30   2 52 0.5
E3   30   98   3 52 0.5
R10  29   31   1
R11  31   98   100E-6
C7   29   31   1.264E-6
*
* REFERENCE NODE AND OUTPUT STAGE
*
RMP1 97   52   1
RMP2 52   51   1
GSY  99   50   POLY(1) 99 50 9.625E-3 12.5E-6
R13  99   36   200
R14  36   50   200
L1   36   37   1E-10
G5   34   50   27 36 5E-3
G6   35   50   36 27 5E-3
G7   36   99   99 27 5E-3
G8   50   36   27 50 5E-3
V3   32   36   1.55
V4   36   33   1.55
D3   27   32   DX
D4   33   27   DX
D5   99   34   DX
D6   99   35   DX
D7   50   34   DY
D8   50   35   DY
F1   36   0    V3 1
F2   0    36   V4 1
*
* MODELS USED
*
.MODEL JX PJF(BETA=66.299 VTO=-1.5 IS=400E-12
.MODEL DX D(IS=1E-15)
.MODEL DY D(IS=1E-15 BV=50)
.MODEL DEN D(RS=1.931E3 KF=2.278E-15 AF=1)
.MODEL DIN D(RS=5.277E3 KF=42.593E-15 AF=1)
.ENDS 
**********
*SRC=AD745B;AD745B;Opamps;AD-"ADxxx";
*SYM=ADOPAMP
* Node assignments
*                non-inverting input
*                |  inverting input
*                |  |  positive supply
*                |  |  |  negative supply
*                |  |  |  |  output
*                |  |  |  |  |
.SUBCKT AD745B   3  2  99 50 37
*
* INPUT STAGE AND POLE AT 54MHZ
*
I1   97   1    1
J1   5    2    1    JX
J2   6    4    1    JX
CIN  2    3    20E-12
IOS  3    2    37.5E-12
EN   7    3    9 0 1
GN1  0    2    12 0 1E-6
GN2  0    3    15 0 1E-6
EOS  4    7    POLY(1) 31 52 250E-6 1
R1   5    51   86.842E-3
R2   6    51   86.842E-3
C1   5    6    16.969E-9
EPOS 97   0    99 0 1
ENEG 51   0    50 0 1
EREF 98   0    52 0 1
*
* VOLTAGE NOISE SOURCE WITH FLICKER NOISE
*
VN1  8    0    DC 2
VN2  0    10   DC 2
DN1  8    9    DEN
DN2  9    10   DEN
*
* CURRENT NOISE SOURCE WITH FLICKER NOISE
*
VN3  11   0    DC 10
VN4  0    13   DC 10