**********
* Copyright 1990 by Analog Devices, Inc.
**********
*SRC=AD620A;AD620A;Inst. Amps;Analog Devices;
*SYM=AD620
* AD620A SPICE Macro-model              10/95, Rev. B
*                                       ARG / ADSC
*
* This version of the AD620 model simulates the worst-case
* parameters of the 'A' grade. The worst-case parameters
* used correspond to those in the data sheet.
*
* Revision History:
*     Rev. B
* Added V2,V3,V12,V13 and D3,D4,D15,D16 to clamp inputs to Q3,Q4 to
* prevent output phase reversal.
*
*
* Copyright 1990 by Analog Devices, Inc.
*
* Node assignments
*                 non-inverting input
*                 |  inverting input
*                 |  |  positive supply
*                 |  |  |  negative supply
*                 |  |  |  |  output
*                 |  |  |  |  |  ref
*                 |  |  |  |  |  |  rg1
*                 |  |  |  |  |  |  |  rg2
*                 |  |  |  |  |  |  |  |
.SUBCKT AD620A    1  2  99 50 46 20 7  8
*
* INPUT STAGE
*
I1   7    50   5.002E-6
I2   8    50   5.002E-6
IOS  3    4    0.5E-9
VIOS 21   3    125E-6
CCM  3    4    2E-12
CD1  3    0    2E-12
CD2  4    0    2E-12
Q1   5    4    7    QN1
Q2   6    21   8    QN1
D1   7    4    DX
D2   8    21   DX
R1   1    3    400
R2   2    4    400
R3   99   5    100E3
R4   99   6    100E3
R5   7    9    24.7E3
R6   8    10   24.7E3
E1   9    46   11 5 375E6
E2   10   46   11 6 375E6
V1   99   11   0.5
RV1  99   11   1E3
CC1  5    9    4E-12
CC2  6    10   4E-12
*
* DIFFERENCE AMPLIFIER AND POLE AT 1MHZ
*
I3   18   50   5E-6
R7   99   12   11.937E3
R8   99   15   11.937E3
R9   14   18   1.592E3
R10  17   18   1.592E3
R11  9    13   10E3
R12  13   46   10E3
Q3   12   13   14   QN2
Q4   15   16   17   QN2
R13  19   16   10E3
R14  16   20   10E3
C1   12   15   6.667E-12
EOOS 19   10   POLY(1) 38 98 1.5E-3 223.872
EREF 98   0    POLY(2) 99 0 50 0 0 0.5 0.5
D3 13 51 DX
D4 16 52 DX
V2 99 51 0.7
V3 99 52 0.7
D15 53 13 DX
D16 54 16 DX
V12 53 50 0.7
V13 54 50 0.7
*
* GAIN STAGE AND DOMINANT POLE AT 0.667HZ
*
R16  25   98   35.810E9
C2   25   98   6.667E-12
G1   98   25   12 15 83.776E-6
V6   99   26   1.53
V7   27   50   1.33
D7   25   26   DX
D8   27   25   DX
*
* POLE AT 10MHZ
*
R17  40   98   1
C3   40   98   15.916E-9
G2   98   40   25 98 1
*
* COMMON MODE STAGE WITH ZERO AT 708HZ
*
E3   36   98   POLY(2) 1 98 2 98 0 0.5 0.5
R18  36   38   1E6
R19  38   98   1
C5   36   38   224.812E-12
*
* OUTPUT STAGE
*
GSY  99   50   POLY(1) 99 50 1.1725E-3 3.125E-6
RO1  99   45   250
RO2  45   50   250
L1   45   46   1E-6
GO1  45   99   99 40 4E-3
GO2  50   45   40 50 4E-3
GC1  43   50   40 45 4E-3
GC2  44   50   45 40 4E-3
F1   45   0    V4 1
F2   0    45   V5 1
V4   41   45   1.65
V5   45   42   1.65
D9   50   43   DY
D10  50   44   DY
D11  99   43   DX
D12  99   44   DX
D13  40   41   DX
D14  42   40   DX
*
* MODELS USED
*
.MODEL DX D(IS=1E-12)
.MODEL DY D(IS=1E-12 BV=50)
.MODEL QN1 NPN(BF=2.5E3 KF=0.7E-15 AF=1)
.MODEL QN2 NPN(BF=250 KF=0.5E-14 AF=1)
.ENDS
**********
*SRC=AD620B;AD620B;Inst. Amps;Analog Devices;
*SYM=AD620
* AD620B SPICE Macro-model              10/95, Rev. B
*                                       ARG / ADSC
*
* This version of the AD620 model simulates the worst-case
* parameters of the 'B' grade. The worst-case parameters
* used correspond to those in the data sheet.
*
* Revision History:
*     Rev. B
* Added V2,V3,V12,V13 and D3,D4,D15,D16 to clamp inputs to Q3,Q4 to
* prevent output phase reversal.
*
*
* Copyright 1990 by Analog Devices, Inc.
*
* Node assignments
*                 non-inverting input
*                 |  inverting input
*                 |  |  positive supply
*                 |  |  |  negative supply
*                 |  |  |  |  output
*                 |  |  |  |  |  ref
*                 |  |  |  |  |  |  rg1
*                 |  |  |  |  |  |  |  rg2
*                 |  |  |  |  |  |  |  |
.SUBCKT AD620B    1  2  99 50 46 20 7  8
*
* INPUT STAGE
*
I1   7    50   5.001E-6
I2   8    50   5.001E-6
IOS  3    4    0.25E-9
VIOS 21   3    50E-6
CCM  3    4    2E-12
CD1  3    0    2E-12
CD2  4    0    2E-12
Q1   5    4    7    QN1
Q2   6    21   8    QN1
D1   7    4    DX
D2   8    21   DX
R1   1    3    400
R2   2    4    400
R3   99   5    100E3
R4   99   6    100E3
R5   7    9    24.7E3
R6   8    10   24.7E3
E1   9    46   11 5 375E6
E2   10   46   11 6 375E6
V1   99   11   0.5
RV1  99   11   1E3
CC1  5    9    4E-12
CC2  6    10   4E-12
*
* DIFFERENCE AMPLIFIER AND POLE AT 1MHZ
*
I3   18   50   5E-6
R7   99   12   11.937E3
R8   99   15   11.937E3
R9   14   18   1.592E3
R10  17   18   1.592E3
R11  9    13   10E3
R12  13   46   10E3
Q3   12   13   14   QN2
Q4   15   16   17   QN2
R13  19   16   10E3
R14  16   20   10E3
C1   12   15   6.667E-12
EOOS 19   10   POLY(1) 38 98 0.75E-3 100
EREF 98   0    POLY(2) 99 0 50 0 0 0.5 0.5
D3 13 51 DX
D4 16 52 DX
V2 99 51 0.7
V3 99 52 0.7
D15 53 13 DX
D16 54 16 DX
V12 53 50 0.7
V13 54 50 0.7
*
* GAIN STAGE AND DOMINANT POLE AT 0.667HZ
*
R16  25   98   35.810E9
C2   25   98   6.667E-12
G1   98   25   12 15 83.776E-6
V6   99   26   1.53
V7   27   50   1.33
D7   25   26   DX
D8   27   25   DX
*
* POLE AT 10MHZ
*
R17  40   98   1
C3   40   98   15.916E-9
G2   98   40   25 98 1
*
* COMMON MODE STAGE WITH ZERO AT 316HZ
*
E3   36   98   POLY(2) 1 98 2 98 0 0.5 0.5
R18  36   38   1E6
R19  38   98   1
C5   36   38   503.292E-12
*
* OUTPUT STAGE
*
GSY  99   50   POLY(1) 99 50 1.1725E-3 3.125E-6
RO1  99   45   250
RO2  45   50   250
L1   45   46   1E-6
GO1  45   99   99 40 4E-3
GO2  50   45   40 50 4E-3
GC1  43   50   40 45 4E-3
GC2  44   50   45 40 4E-3
F1   45   0    V4 1
F2   0    45   V5 1
V4   41   45   1.65
V5   45   42   1.65
D9   50   43   DY
D10  50   44   DY
D11  99   43   DX
D12  99   44   DX
D13  40   41   DX
D14  42   40   DX
*
* MODELS USED
*
.MODEL DX D(IS=1E-12)
.MODEL DY D(IS=1E-12 BV=50)
.MODEL QN1 NPN(BF=5E3 KF=0.7E-15 AF=1)
.MODEL QN2 NPN(BF=250 KF=0.5E-14 AF=1)
.ENDS
**********
*SRC=AD620S;AD620S;Inst. Amps;Analog Devices;
*SYM=AD620
* AD620S SPICE Macro-model              10/95, Rev. B
*                                       ARG / ADSC
*
* This version of the AD620 model simulates the worst-case
* parameters of the 'S' grade. The worst-case parameters
* used correspond to those in the data sheet.
*
* Revision History:
*     Rev. B
* Added V2,V3,V12,V13 and D3,D4,D15,D16 to clamp inputs to Q3,Q4 to
* prevent output phase reversal.
*
*
* Copyright 1990 by Analog Devices, Inc.
*
* Node assignments
*                 non-inverting input
*                 |  inverting input
*                 |  |  positive supply
*                 |  |  |  negative supply
*                 |  |  |  |  output
*                 |  |  |  |  |  ref
*                 |  |  |  |  |  |  rg1
*                 |  |  |  |  |  |  |  rg2
*                 |  |  |  |  |  |  |  |
.SUBCKT AD620S    1  2  99 50 46 20 7  8
*
* INPUT STAGE
*
I1   7    50   5.002E-6
I2   8    50   5.002E-6
IOS  3    4    0.5E-9
VIOS 21   3    125E-6
CCM  3    4    2E-12
CD1  3    0    2E-12
CD2  4    0    2E-12
Q1   5    4    7    QN1
Q2   6    21   8    QN1
D1   7    4    DX
D2   8    21   DX
R1   1    3    400
R2   2    4    400
R3   99   5    100E3
R4   99   6    100E3
R5   7    9    24.7E3
R6   8    10   24.7E3
E1   9    46   11 5 375E6
E2   10   46   11 6 375E6
V1   99   11   0.5
RV1  99   11   1E3
CC1  5    9    4E-12
CC2  6    10   4E-12
*
* DIFFERENCE AMPLIFIER AND POLE AT 1MHZ
*
I3   18   50   5E-6
R7   99   12   11.937E3
R8   99   15   11.937E3
R9   14   18   1.592E3
R10  17   18   1.592E3
R11  9    13   10E3
R12  13   46   10E3
Q3   12   13   14   QN2
Q4   15   16   17   QN2
R13  19   16   10E3
R14  16   20   10E3
C1   12   15   6.667E-12
EOOS 19   10   POLY(1) 38 98 1.5E-3 223.872
EREF 98   0    POLY(2) 99 0 50 0 0 0.5 0.5
*
* GAIN STAGE AND DOMINANT POLE AT 0.667HZ
*
R16  25   98   35.810E9
C2   25   98   6.667E-12
G1   98   25   12 15 83.776E-6
V6   99   26   1.53
V7   27   50   1.33
D7   25   26   DX
D8   27   25   DX
*
* POLE AT 10MHZ
*
R17  40   98   1
C3   40   98   15.916E-9
G2   98   40   25 98 1
*
* COMMON MODE STAGE WITH ZERO AT 708HZ
*
E3   36   98   POLY(2) 1 98 2 98 0 0.5 0.5
R18  36   38   1E6
R19  38   98   1
C5   36   38   224.812E-12
*
* OUTPUT STAGE
*
GSY  99   50   POLY(1) 99 50 1.1725E-3 3.125E-6
RO1  99   45   250
RO2  45   50   250
L1   45   46   1E-6
GO1  45   99   99 40 4E-3
GO2  50   45   40 50 4E-3
GC1  43   50   40 45 4E-3
GC2  44   50   45 40 4E-3
F1   45   0    V4 1
F2   0    45   V5 1
V4   41   45   1.65
V5   45   42   1.65
D9   50   43   DY
D10  50   44   DY
D11  99   43   DX
D12  99   44   DX
D13  40   41   DX
D14  42   40   DX
*
* MODELS USED
*
.MODEL DX D(IS=1E-12)
.MODEL DY D(IS=1E-12 BV=50)
.MODEL QN1 NPN(BF=2.5E3 KF=0.7E-15 AF=1)
.MODEL QN2 NPN(BF=250 KF=0.5E-14 AF=1)
.ENDS
**********
*SRC=AD797;AD797;Opamps;AD-"ADxxx";
*SYM=ADCOMP
* AD797 SPICE Macro-model 10/92, Rev. A
* AAG / PMI
* Node assignments
*             non-inverting input
*             | inverting input
*             | | positive supply
*             | | |  negative supply
*             | | |  |  output
*             | | |  |  |  decompensation
*             | | |  |  |  |
.SUBCKT AD797 1 2 99 50 38 14
*
* INPUT STAGE & POLE AT 500 MHz
*
IOS 1 2 DC 50E-9
CIND 1 2 20E-12
CINC1 1 98 5E-12
GRCM1 1 98 POLY(2) 1 31 2 31 0 5E-9 5E-9
GN1 0 1 44 0 1E-3
CINC2 2 98 5E-12
GRCM2 2 98 POLY(2) 1 31 2 31 0 5E-9 5E-9
GN2 0 2 47 0 1E-3
EOS 9 3 POLY(1) 22 31 25E-6 1
EN 3 1 41 0 0.1
D1 2 9 DX
D2 9 2 DX
Q1 5 2 4 QX
Q2 6 9 4 QX
R3 97 5 0.5172
R4 97 6 0.5172
C2 5 6 3.0772E-10
I1 4 51 100E-3
EPOS 97 0 99 0 1
ENEG 51 0 50 0 1
*
* INPUT VOLTAGE NOISE GENERATOR
*
VN1 40 0 DC 2
DN1 40 41 DEN
DN2 41 42 DEN
VN2 0 42 DC 2
*
* +INPUT CURRENT NOISE GENERATOR
*
VN3 43 0 DC 2
DN3 43 44 DIN
DN4 44 45 DIN
VN4 0 45 DC 2
*
* -INPUT CURRENT NOISE GENERATOR
*
VN5 46 0 DC 2
DN5 46 47 DIN
DN6 47 48 DIN
VN6 0 48 DC 2
*
* GAIN STAGE & DOMINANT POLE AT 7.33 Hz
*
EREF 98 0 31 0 1
G1 98 10 5 6 10
R7 10 98 10
E1 99 11 POLY(1) 99 31 -2.294 1
D3 10 11 DX
E2 12 50 POLY(1) 31 50 -2.294 1
D4 12 10 DX
G2 98 13 10 31 1E-3
R8 13 98 10
G3 99 14 98 13 34.558E-3
G4 99 16 98 98 34.558E-3
G5 14 15 15 14 20E-3
G6 16 17 17 14 20E-3
R9 15 18 400
R10 17 18 400
E3 18 98 16 98 1
R11 16 98 4.3406E8
C5 16 98 50E-12
V1 99 19 DC 2.2542
D5 16 19 DX
V2 20 50 DC 2.2542
D6 20 16 DX
RDC 14 98 1E15
*
* COMMON-MODE GAIN NETWORK WITH ZERO AT 1.35 kHz
*
ECM 21 98 POLY(2) 1 31 2 31 0 158.11E-3 158.11E-3
RCM1 21 22 1
CCM 21 22 1.1789E-4
RCM2 22 98 1E-6
*
* POLE-ZERO PAIR AT 3.9 MHz/10 MHz
*
GPZ 98 23 16 98 1
RPZ1 23 98 1
RPZ2 23 24 0.63934
CPZ 24 98 24.893E-9
*
* NEGATIVE ZERO AT -300 MHz
*
ENZ 25 98 23 31 1E6
RNZ1 25 26 -1
CNZ 25 26 5.3052E-10
RNZ2 26 98 -1E-6
*
* POLE AT 300 MHz
*
GP2 98 27 26 31 1
RP2 27 98 1
CP2 27 98 5.3052E-10
*
* POLE AT 500 MHz
*
GP3 98 28 27 31 1
RP3 28 98 1
CP3 28 98 3.1831E-10
*
* POLE AT 500 MHz
*
GP4 98 29 28 31 1
RP4 29 98 1
CP4 29 98 3.1831E-10
*
* OUTPUT STAGE
*
VW 29 30 DC 0
RDC1 99 31 23.25E3
CDC 31 0 1E-6
RDC2 31 50 23.25E3
GO1 98 32 37 30 25E-3
DO1 32 33 DX
VO1 33 98 DC 0
DO2 34 32 DX
VO2 98 34 DC 0
FDC 99 50 POLY(2) VO1 VO2 7.56E-3 1 1
VSC1 35 37 0.945
DSC1 30 35 DX
VSC2 37 36 0.745
DSC2 36 30 DX
FSC1 37 0 VSC1 1
FSC2 0 37 VSC2 1
GO3 37 99 99 30 25E-3
GO4 50 37 30 50 25E-3
RO1 99 37 40
RO2 37 50 40
LO 37 38 10E-9
*
* MODELS USED
*
.MODEL QX NPN(BF=2E5)
.MODEL DX D(IS=1E-15)
.MODEL DEN D(IS=1E-12 RS=6.3708E3 AF=1 KF=1.59E-15)
.MODEL DIN D(IS=1E-12 RS=474 AF=1 KF=7.816E-15)
.ENDS
**********
*SRC=AD797A;AD797A;Opamps;AD-"ADxxx";
*SYM=ADCOMP
* AD797A SPICE Macro-model 10/92, Rev. A
* AAG / PMI
* Node assignments
*              non-inverting input
*              | inverting input
*              | | positive supply
*              | | |  negative supply
*              | | |  |  output
*              | | |  |  |  decompensation
*              | | |  |  |  |
.SUBCKT AD797A 1 2 99 50 38 14
*
* INPUT STAGE & POLE AT 500 MHz
*
IOS 1 2 DC 200E-9
CIND 1 2 20E-12
CINC1 1 98 5E-12
GRCM1 1 98 POLY(2) 1 31 2 31 0 5E-9 5E-9
GN1 0 1 44 0 1E-3
CINC2 2 98 5E-12
GRCM2 2 98 POLY(2) 1 31 2 31 0 5E-9 5E-9
GN2 0 2 47 0 1E-3
EOS 9 3 POLY(1) 22 31 80E-6 1
EN 3 1 41 0 0.1
D1 2 9 DX
D2 9 2 DX
Q1 5 2 4 QX
Q2 6 9 4 QX
R3 97 5 0.5172
R4 97 6 0.5172
C2 5 6 3.0772E-10
I1 4 51 100E-3
EPOS 97 0 99 0 1
ENEG 51 0 50 0 1
*
* INPUT VOLTAGE NOISE GENERATOR
*
VN1 40 0 DC 2
DN1 40 41 DEN
DN2 41 42 DEN
VN2 0 42 DC 2
*
* +INPUT CURRENT NOISE GENERATOR
*
VN3 43 0 DC 2
DN3 43 44 DIN
DN4 44 45 DIN
VN4 0 45 DC 2
*
* -INPUT CURRENT NOISE GENERATOR
*
VN5 46 0 DC 2
DN5 46 47 DIN
DN6 47 48 DIN
VN6 0 48 DC 2
*
* GAIN STAGE & DOMINANT POLE AT 110 Hz
*
EREF 98 0 31 0 1
G1 98 10 5 6 10
R7 10 98 10
E1 99 11 POLY(1) 99 31 -1.209 1
D3 10 11 DX
E2 12 50 POLY(1) 31 50 -1.209 1
D4 12 10 DX
G2 98 13 10 31 1E-3
R8 13 98 10
G3 99 14 98 13 34.558E-3
G4 99 16 98 98 34.558E-3
G5 14 15 15 14 20E-3
G6 16 17 17 14 20E-3
R9 15 18 400
R10 17 18 400
E3 18 98 16 98 1
R11 16 98 2.8937E7
C5 16 98 50E-12
V1 99 19 DC 4.3208
D5 16 19 DX
V2 20 50 DC 4.3208
D6 20 16 DX
RDC 14 98 1E15
*
* COMMON-MODE GAIN NETWORK WITH ZERO AT 8.52 kHz
*
ECM 21 98 POLY(2) 1 31 2 31 0 997.63E-3 997.63E-3
RCM1 21 22 1
CCM 21 22 18.685E-6
RCM2 22 98 1E-6
*
* POLE-ZERO PAIR AT 3.9 MHz/10 MHz
*
GPZ 98 23 16 98 1
RPZ1 23 98 1
RPZ2 23 24 0.63934
CPZ 24 98 24.893E-9
*
* NEGATIVE ZERO AT -300 MHz
*
ENZ 25 98 23 31 1E6
RNZ1 25 26 -1
CNZ 25 26 5.3052E-10
RNZ2 26 98 -1E-6
*
* POLE AT 300 MHz
*
GP2 98 27 26 31 1
RP2 27 98 1
CP2 27 98 5.3052E-10
*
* POLE AT 500 MHz
*
GP3 98 28 27 31 1
RP3 28 98 1
CP3 28 98 3.1831E-10
*
* POLE AT 500 MHz
*
GP4 98 29 28 31 1
RP4 29 98 1
CP4 29 98 3.1831E-10
*
* OUTPUT STAGE
*
VW 29 30 DC 0
RDC1 99 31 23.25E3
CDC 31 0 1E-6
RDC2 31 50 23.25E3
GO1 98 32 37 30 25E-3
DO1 32 33 DX
VO1 33 98 DC 0
DO2 34 32 DX
VO2 98 34 DC 0
FDC 99 50 POLY(2) VO1 VO2 9.86E-3 1 1
VSC1 35 37 0.945
DSC1 30 35 DX
VSC2 37 36 0.745
DSC2 36 30 DX
FSC1 37 0 VSC1 1
FSC2 0 37 VSC2 1
GO3 37 99 99 30 25E-3
GO4 50 37 30 50 25E-3
RO1 99 37 40
RO2 37 50 40
LO 37 38 10E-9
*
* MODELS USED
*
.MODEL QX NPN(BF=3.3333E4)
.MODEL DX D(IS=1E-15)
.MODEL DEN D(IS=1E-12 RS=6.3708E3 AF=1 KF=1.59E-15)
.MODEL DIN D(IS=1E-12 RS=474 AF=1 KF=7.816E-15)
.ENDS
**********
*SRC=AD797B;AD797B;Opamps;AD-"ADxxx";
*SYM=ADCOMP
* AD797B SPICE Macro-model 10/92, Rev. A
* AAG / PMI
* Node assignments
*              non-inverting input
*              | inverting input
*              | | positive supply
*              | | |  negative supply
*              | | |  |  output
*              | | |  |  |  decompensation
*              | | |  |  |  |
.SUBCKT AD797B 1 2 99 50 38 14
*
* INPUT STAGE & POLE AT 500 MHz
*
IOS 1 2 DC 100E-9
CIND 1 2 20E-12
CINC1 1 98 5E-12
GRCM1 1 98 POLY(2) 1 31 2 31 0 5E-9 5E-9
GN1 0 1 44 0 1E-3
CINC2 2 98 5E-12
GRCM2 2 98 POLY(2) 1 31 2 31 0 5E-9 5E-9
GN2 0 2 47 0 1E-3
EOS 9 3 POLY(1) 22 31 40E-6 1
EN 3 1 41 0 0.1
D1 2 9 DX
D2 9 2 DX
Q1 5 2 4 QX
Q2 6 9 4 QX
R3 97 5 0.5172
R4 97 6 0.5172
C2 5 6 3.0772E-10
I1 4 51 100E-3
EPOS 97 0 99 0 1
ENEG 51 0 50 0 1
*
* INPUT VOLTAGE NOISE GENERATOR
*
VN1 40 0 DC 2
DN1 40 41 DEN
DN2 41 42 DEN
VN2 0 42 DC 2
*
* +INPUT CURRENT NOISE GENERATOR
*
VN3 43 0 DC 2
DN3 43 44 DIN
DN4 44 45 DIN
VN4 0 45 DC 2
*
* -INPUT CURRENT NOISE GENERATOR
*
VN5 46 0 DC 2
DN5 46 47 DIN
DN6 47 48 DIN
VN6 0 48 DC 2
*
* GAIN STAGE & DOMINANT POLE AT 55 Hz
*
EREF 98 0 31 0 1
G1 98 10 5 6 10
R7 10 98 10
E1 99 11 POLY(1) 99 31 -1.209 1
D3 10 11 DX
E2 12 50 POLY(1) 31 50 -1.209 1
D4 12 10 DX
G2 98 13 10 31 1E-3
R8 13 98 10
G3 99 14 98 13 34.558E-3
G4 99 16 98 98 34.558E-3
G5 14 15 15 14 20E-3
G6 16 17 17 14 20E-3
R9 15 18 400
R10 17 18 400
E3 18 98 16 98 1
R11 16 98 5.7875E7
C5 16 98 50E-12
V1 99 19 DC 4.3208
D5 16 19 DX
V2 20 50 DC 4.3208
D6 20 16 DX
RDC 14 98 1E15
*
* COMMON-MODE GAIN NETWORK WITH ZERO AT 4.3 kHz
*
ECM 21 98 POLY(2) 1 31 2 31 0 0.5 0.5
RCM1 21 22 1
CCM 21 22 37.281E-6
RCM2 22 98 1E-6
*
* POLE-ZERO PAIR AT 3.9 MHz/10 MHz
*
GPZ 98 23 16 98 1
RPZ1 23 98 1
RPZ2 23 24 0.63934
CPZ 24 98 24.893E-9
*
* NEGATIVE ZERO AT -300 MHz
*
ENZ 25 98 23 31 1E6
RNZ1 25 26 -1
CNZ 25 26 5.3052E-10
RNZ2 26 98 -1E-6
*
* POLE AT 300 MHz
*
GP2 98 27 26 31 1
RP2 27 98 1
CP2 27 98 5.3052E-10
*
* POLE AT 500 MHz
*
GP3 98 28 27 31 1
RP3 28 98 1
CP3 28 98 3.1831E-10
*
* POLE AT 500 MHz
*
GP4 98 29 28 31 1
RP4 29 98 1
CP4 29 98 3.1831E-10
*
* OUTPUT STAGE
*
VW 29 30 DC 0
RDC1 99 31 23.25E3
CDC 31 0 1E-6
RDC2 31 50 23.25E3
GO1 98 32 37 30 25E-3
DO1 32 33 DX
VO1 33 98 DC 0
DO2 34 32 DX
VO2 98 34 DC 0
FDC 99 50 POLY(2) VO1 VO2 9.86E-3 1 1
VSC1 35 37 0.945
DSC1 30 35 DX
VSC2 37 36 0.745
DSC2 36 30 DX
FSC1 37 0 VSC1 1
FSC2 0 37 VSC2 1
GO3 37 99 99 30 25E-3
GO4 50 37 30 50 25E-3
RO1 99 37 40
RO2 37 50 40
LO 37 38 10E-9
*
* MODELS USED
*
.MODEL QX NPN(BF=5.5556E4)
.MODEL DX D(IS=1E-15)
.MODEL DEN D(IS=1E-12 RS=6.3708E3 AF=1 KF=1.59E-15)
.MODEL DIN D(IS=1E-12 RS=474 AF=1 KF=7.816E-15)
.ENDS
**********
*SRC=AD797S;AD797S;Opamps;AD-"ADxxx";
*SYM=ADCOMP
* AD797S SPICE Macro-model 10/92  Rev. A
* AAG / PMI
* Node assignments
*              non-inverting input
*              | inverting input
*              | | positive supply
*              | | |  negative supply
*              | | |  |  output
*              | | |  |  |  decompensation
*              | | |  |  |  |
.SUBCKT AD797S 1 2 99 50 38 14
*
* INPUT STAGE & POLE AT 500 MHz
*
IOS 1 2 DC 200E-9
CIND 1 2 20E-12
CINC1 1 98 5E-12
GRCM1 1 98 POLY(2) 1 31 2 31 0 5E-9 5E-9
GN1 0 1 44 0 1E-3
CINC2 2 98 5E-12
GRCM2 2 98 POLY(2) 1 31 2 31 0 5E-9 5E-9
GN2 0 2 47 0 1E-3
EOS 9 3 POLY(1) 22 31 80E-6 1
EN 3 1 41 0 0.1
D1 2 9 DX
D2 9 2 DX
Q1 5 2 4 QX
Q2 6 9 4 QX
R3 97 5 0.5172
R4 97 6 0.5172
C2 5 6 3.0772E-10
I1 4 51 100E-3
EPOS 97 0 99 0 1
ENEG 51 0 50 0 1
*
* INPUT VOLTAGE NOISE GENERATOR
*
VN1 40 0 DC 2
DN1 40 41 DEN
DN2 41 42 DEN
VN2 0 42 DC 2
*
* +INPUT CURRENT NOISE GENERATOR
*
VN3 43 0 DC 2
DN3 43 44 DIN
DN4 44 45 DIN
VN4 0 45 DC 2
*
* -INPUT CURRENT NOISE GENERATOR
*
VN5 46 0 DC 2
DN5 46 47 DIN
DN6 47 48 DIN
VN6 0 48 DC 2
*
* GAIN STAGE & DOMINANT POLE AT 110 Hz
*
EREF 98 0 31 0 1
G1 98 10 5 6 10
R7 10 98 10
E1 99 11 POLY(1) 99 31 -1.209 1
D3 10 11 DX
E2 12 50 POLY(1) 31 50 -1.209 1
D4 12 10 DX
G2 98 13 10 31 1E-3
R8 13 98 10
G3 99 14 98 13 34.558E-3
G4 99 16 98 98 34.558E-3
G5 14 15 15 14 20E-3
G6 16 17 17 14 20E-3
R9 15 18 400
R10 17 18 400
E3 18 98 16 98 1
R11 16 98 2.8937E7
C5 16 98 50E-12
V1 99 19 DC 4.3208
D5 16 19 DX
V2 20 50 DC 4.3208
D6 20 16 DX
RDC 14 98 1E15
*
* COMMON-MODE GAIN NETWORK WITH ZERO AT 8.52 kHz
*
ECM 21 98 POLY(2) 1 31 2 31 0 997.63E-3 997.63E-3
RCM1 21 22 1
CCM 21 22 18.685E-6
RCM2 22 98 1E-6
*
* POLE-ZERO PAIR AT 3.9 MHz/10 MHz
*
GPZ 98 23 16 98 1
RPZ1 23 98 1
RPZ2 23 24 0.63934
CPZ 24 98 24.893E-9
*
* NEGATIVE ZERO AT -300 MHz
*
ENZ 25 98 23 31 1E6
RNZ1 25 26 -1
CNZ 25 26 5.3052E-10
RNZ2 26 98 -1E-6
*
* POLE AT 300 MHz
*
GP2 98 27 26 31 1
RP2 27 98 1
CP2 27 98 5.3052E-10
*
* POLE AT 500 MHz
*
GP3 98 28 27 31 1
RP3 28 98 1
CP3 28 98 3.1831E-10
*
* POLE AT 500 MHz
*
GP4 98 29 28 31 1
RP4 29 98 1
CP4 29 98 3.1831E-10
*
* OUTPUT STAGE
*
VW 29 30 DC 0
RDC1 99 31 23.25E3
CDC 31 0 1E-6
RDC2 31 50 23.25E3
GO1 98 32 37 30 25E-3
DO1 32 33 DX
VO1 33 98 DC 0
DO2 34 32 DX
VO2 98 34 DC 0
FDC 99 50 POLY(2) VO1 VO2 9.86E-3 1 1
VSC1 35 37 0.945
DSC1 30 35 DX
VSC2 37 36 0.745
DSC2 36 30 DX
FSC1 37 0 VSC1 1
FSC2 0 37 VSC2 1
GO3 37 99 99 30 25E-3
GO4 50 37 30 50 25E-3
RO1 99 37 40
RO2 37 50 40
LO 37 38 10E-9
*
* MODELS USED
*
.MODEL QX NPN(BF=3.3333E4)
.MODEL DX D(IS=1E-15)
.MODEL DEN D(IS=1E-12 RS=6.3708E3 AF=1 KF=1.59E-15)
.MODEL DIN D(IS=1E-12 RS=474 AF=1 KF=7.816E-15)
.ENDS
**********
*SYM=ADOPAMP
* OP-213 SPICE Macro-model                  9/92, Rev. A
*                                           JCB / PMI
* Node assignments
*
*                   non-inverting input
*                   |  inverting input
*                   |  |  positive supply
*                   |  |  |  negative supply
*                   |  |  |  |  output
*                   |  |  |  |  |
.SUBCKT OP213A      3  2  7  4  6
*
*  INPUT STAGE
*
R3   4   19   1.5E3
R4   4   20   1.5E3
C1   19  20   5.31E-12
I1   7   18   106E-6
IOS  2    3   25E-09
EOS  12   5   POLY(1) 51 4 25E-06 1
Q1   19   3   18 PNP1
Q2   20  12   18 PNP1
CIN  3    2   3E-12
D1   3    1   DY
D2   2    1   DY
EN   5    2   22  0  1
GN1  0    2   25  0  1E-5
GN2  0    3   28  0  1E-5
*
* VOLTAGE NOISE SOURCE WITH FLICKER NOISE
*
DN1  21  22   DEN
DN2  22  23   DEN
VN1  21   0   DC 2
VN2  0   23   DC 2
*
* CURRENT NOISE SOURCE WITH FLICKER NOISE
*
DN3  24  25   DIN
DN4  25  26   DIN
VN3  24   0   DC 2
VN4  0   26   DC 2
*
* SECOND CURRENT NOISE SOURCE
*
DN5  27  28   DIN
DN6  28  29   DIN
VN5  27   0   DC 2
VN6  0   29   DC 2
*
* GAIN STAGE & DOMINANT POLE AT   .2000E+01 HZ
*
G2   34  36   19 20 2.65E-04
R7   34  36   39E+06
V3   35   4   DC  6
D4   36  35   DX
VB2  34   4   1.6
*
* SUPPLY/2 GENERATOR
*
ISY  7    4   0.2E-3
R10  7   60   40E+3
R11  60   4   40E+3
C3   60   0   1E-9
*
* CMRR STAGE & POLE AT   6 kHZ
*
ECM  50   4   POLY(2) 3 60 2 60 0 0.8 0.8
CCM  50  51   26.5E-12
RCM1 50  51   1E6
RCM2 51   4   1
*
* OUTPUT STAGE
*
R12  37  36  1E3
R13  38  36  500
C4   37   6  20E-12
C5   38  39  20E-12
M1   39  36  4   4   MN  L=9E-6  W=999E-6  AD=15E-9 AS=15E-9
M2   45  36  4   4   MN  L=9E-6  W=999E-6  AD=15E-9 AS=15E-9
D5   39  47  DX
D6   47  45  DX
Q3   39  40  41  QPA  8
VB   7   40  DC  0.861
R14  7   41  375
Q4   41   7  43  QNA  1
R17  7   43  15
Q5   43  39  6   QNA  20
Q6   46  45  6   QPA  20
R18  46   4  15
Q7   36  46  4   QNA  1 
M3   6   36  4   4   MN  L=9E-6  W=1999E-6  AD=30E-9 AS=30E-9
*
* NONLINEAR MODELS USED
*
.MODEL DX D (IS=1E-15)
.MODEL DY D (IS=1E-15  BV=7)
.MODEL PNP1 PNP (BF=220)
.MODEL DEN D(IS=1E-12 RS=1016 KF=3.278E-15 AF=1)
.MODEL DIN D(IS=1E-12 RS=100019 KF=4.173E-15 AF=1)
.MODEL QNA NPN(IS=1.19E-16 BF=253 VAF=193 VAR=15 RB=2.0E3
+ IRB=7.73E-6 RBM=132.8 RE=4 RC=209 CJE=2.1E-13 VJE=0.573
+ MJE=0.364 CJC=1.64E-13 VJC=0.534 MJC=0.5 CJS=1.37E-12
+ VJS=0.59 MJS=0.5 TF=0.43E-9 PTF=30)
.MODEL QPA PNP(IS=5.21E-17 BF=131 VAF=62 VAR=15 RB=1.52E3
+ IRB=1.67E-5 RBM=368.5 RE=6.31 RC=354.4 CJE=1.1E-13
+ VJE=0.745 MJE=0.33 CJC=2.37E-13 VJC=0.762 MJC=0.4
+ CJS=7.11E-13 VJS=0.45 MJS=0.412 TF=1.0E-9 PTF=30) 
.MODEL MN NMOS(LEVEL=3 VTO=1.3 RS=0.3 RD=0.3 TOX=8.5E-8 
+ LD=1.48E-6 NSUB=1.53E16 UO=650 DELTA=10 VMAX=2E5
+ XJ=1.75E-6 KAPPA=0.8 ETA=0.066 THETA=0.01 TPG=1 CJ=2.9E-4
+ PB=0.837 MJ=0.407 CJSW=0.5E-9 MJSW=0.33)
* WD=1E-6 subtracted from W
.ENDS
**********
*SRC=SSM2017;SSM2017;Inst. Amps;Analog Devices;
*SYM=AD620
* SSM-2017 SPICE Macro-model            4/92, Rev. A
*                                       ARG / PMI
* Node assignments
*                 non-inverting input
*                 |  inverting input
*                 |  |  positive supply
*                 |  |  |  negative supply
*                 |  |  |  |  output
*                 |  |  |  |  |  ref
*                 |  |  |  |  |  |  rg1
*                 |  |  |  |  |  |  |  rg2
*                 |  |  |  |  |  |  |  |
.SUBCKT SSM2017   1  2  99 50 45 19 5  6
*
* INPUT STAGE
*
I1   5    51   2E-3
I2   6    51   2E-3
IOS  1    2    1E-9
CIN  1    2    40E-12
VIOS 7    1    100E-6
Q1   3    2    5    QN
Q2   4    7    6    QN
D1   5    2    DX
D2   6    7    DX
R1   97   3    250
R2   97   4    250
R3   5    8    5E3
R4   6    9    5E3
E1   8    45   11 3 10E3
E2   9    45   11 4 10E3
V1   97   11   0.5
R13  97   11   1E6
CC1  3    8    28E-12
CC2  4    9    28E-12
*
* DIFFERENCE AMPLIFIER AND POLE AT 7MHZ
*
I3   97   12   7E-6
R5   21   14   4E3
R6   14   19   5E3
R7   17   20   4E3
R8   17   45   5E3
R9   12   13   31.263E3
R10  12   16   31.263E3
Q3   15   14   13   QP
Q4   18   17   16   QP
R11  15   51   38.652E3
R12  18   51   38.652E3
R14  20   8    1E3
R15  21   24   1E3
C1   15   18   294.118E-15
EOOS 24   9    POLY(1) 38 39 40E-3 1
V2   97   22   3.6
V3   23   51   3.6
D3   21   22   DX
D4   23   21   DX
D5   20   22   DX
D6   23   20   DX
EPOS 97   0    99 0 1
ENEG 51   0    50 0 1
EREF 98   0    39 0 1
RMP1 97   39   1
RMP2 39   51   1
*
* GAIN STAGE AND DOMINANT POLE AT 100HZ
*
R16  25   98   3.865E9
C2   25   98   411.765E-15
G1   98   25   18 15 25.872E-6
V6   97   26   3
V7   27   51   3
D7   25   26   DX
D8   27   25   DX
*
* POLE AT 2MHZ
*
R17  40   98   1
C3   40   98   79.578E-9
G2   98   40   25 39 1
*
* COMMON MODE STAGE WITH ZERO AT 50KHZ
*
E3   36   37   1 39 .5
E4   37   98   2 39 .5
R18  36   38   1
R19  38   98   3.162E-3
C5   36   38   3.183E-6
*
* OUTPUT STAGE
*
GSY  99   50   POLY(1) 99 50 8.6E-3 66.667E-6
RO1  99   45   70
RO2  45   50   70
GO1  45   99   99 40 14.286E-3
GO2  50   45   40 50 14.286E-3
F1   45   0    V4 1
F2   0    45   V5 1
V4   41   45   1
V5   45   42   1
GC1  43   50   40 45 14.286E-3
GC2  44   50   45 40 14.286E-3
D9   50   43   DY
D10  50   44   DY
D11  99   43   DX
D12  99   44   DX
D13  40   41   DX
D14  42   40   DX
*
* MODELS USED
*
.MODEL DX D
.MODEL DY D(BV=50)
.MODEL QN NPN(BF=333.333 RB=15 KF=11.15E-15 AF=1)
.MODEL QP PNP(BF=350)
.ENDS
**********
*SRC=SSM2017P;SSM2017P;Inst. Amps;Analog Devices;
*SYM=AD620
* SSM-2017P SPICE Macro-model           4/92, Rev. A
*                                       ARG / PMI
* Node assignments
*                 non-inverting input
*                 |  inverting input
*                 |  |  positive supply
*                 |  |  |  negative supply
*                 |  |  |  |  output
*                 |  |  |  |  |  ref
*                 |  |  |  |  |  |  rg1
*                 |  |  |  |  |  |  |  rg2
*                 |  |  |  |  |  |  |  |
.SUBCKT SSM2017P  1  2  99 50 45 19 5  6
*
* INPUT STAGE
*
I1   5    51   2E-3
I2   6    51   2E-3
IOS  1    2    1.25E-6
CIN  1    2    40E-12
VIOS 7    1    1.2E-3
Q1   3    2    5    QN
Q2   4    7    6    QN
D1   5    2    DX
D2   6    7    DX
R1   97   3    250
R2   97   4    250
R3   5    8    5E3
R4   6    9    5E3
E1   8    45   11 3 10E3
E2   9    45   11 4 10E3
V1   97   11   0.5
R13  97   11   1E6
CC1  3    8    28E-12
CC2  4    9    28E-12
*
* DIFFERENCE AMPLIFIER AND POLE AT 7MHZ
*
I3   97   12   7E-6
R5   21   14   4E3
R6   14   19   5E3
R7   17   20   4E3
R8   17   45   5E3
R9   12   13   15.347E3
R10  12   16   15.347E3
Q3   15   14   13   QP
Q4   18   17   16   QP
R11  15   51   22.736E3
R12  18   51   22.736E3
R14  20   8    1E3
R15  21   24   1E3
C1   15   18   500E-15
EOOS 24   9    POLY(1) 38 39 500E-3 1
V2   97   22   4.6
V3   23   51   4.6
D3   21   22   DX
D4   23   21   DX
D5   20   22   DX
D6   23   20   DX
EPOS 97   0    99 0 1
ENEG 51   0    50 0 1
EREF 98   0    39 0 1
RMP1 97   39   1
RMP2 39   51   1
*
* GAIN STAGE AND DOMINANT POLE AT 100HZ
*
R16  25   98   2.274E9
C2   25   98   700E-15E
G1   98   25   18 15 43.982E-6
V6   97   26   4.3
V7   27   51   4.3
D7   25   26   DX
D8   27   25   DX
*
* POLE AT 2MHZ
*
R17  40   98   1
C3   40   98   79.578E-9
G2   98   40   25 39 1
*
* COMMON MODE STAGE WITH ZERO AT 50KHZ
*
E3   36   37   1 39 .5
E4   37   98   2 39 .5
R18  36   38   1
R19  38   98   50.119E-3
C5   36   38   3.183E-6
*
* OUTPUT STAGE
*
GSY  99   50   POLY(1) 99 50 12E-3 66.667E-6
RO1  99   45   70
RO2  45   50   70
GO1  45   99   99 40 14.286E-3
GO2  50   45   40 50 14.286E-3
F1   45   0    V4 1
F2   0    45   V5 1
V4   41   45   .862
V5   45   42   .862
GC1  43   50   40 45 14.286E-3
GC2  44   50   45 40 14.286E-3
D9   50   43   DY
D10  50   44   DY
D11  99   43   DX
D12  99   44   DX
D13  40   41   DX
D14  42   40   DX
*
* MODELS USED
*
.MODEL DX D
.MODEL DY D(BV=50)
.MODEL QN NPN(BF=80 RB=15 KF=2.788E-15 AF=1)
.MODEL QP PNP(BF=350)
.ENDS
**********
