**********
* Copyright 1993 by Analog Devices
**********
*SRC=AD600;AD600;Opamps;AD-"ADxxx";
*SYM=AD600
* AD600 SPICE Macro-model               Rev. A, 2/93
*                                       ARG / PMI
* Node assignments
*                input HI
*                |  input LO
*                |  |  positive supply
*                |  |  |  negative supply
*                |  |  |  |  output
*                |  |  |  |  |  control HI
*                |  |  |  |  |  |  control LO
*                |  |  |  |  |  |  |  gate input
*                |  |  |  |  |  |  |  |  output common
*                |  |  |  |  |  |  |  |  |
.SUBCKT AD600    3  2  99 50 48 40 41 70 12
*
* INPUT STAGE
*
Q1A  1    3    21   QN
Q1B  4    5    21   QN
Q2A  1    14   22   QN
Q2B  4    5    22   QN
Q3A  1    15   23   QN
Q3B  4    5    23   QN
Q4A  1    16   24   QN
Q4B  4    5    24   QN
Q5A  1    17   25   QN
Q5B  4    5    25   QN
Q6A  1    18   26   QN
Q6B  4    5    26   QN
Q7A  1    19   27   QN
Q7B  4    5    27   QN
Q8A  1    20   28   QN
Q8B  4    5    28   QN
RT   3    2    500
RL1  3    14   62.5
RL2  14   2    125
RL3  14   15   62.5
RL4  15   2    125
RL5  15   16   62.5
RL6  16   2    125
RL7  16   17   62.5
RL8  17   2    125
RL9  17   18   62.5
RL10 18   2    125
RL11 18   19   62.5
RL12 19   2    125
RL13 19   20   62.5
RL14 20   2    62.5
EOS  11   5    POLY(2) 12 2 38 98 100E-6 8.84E-3 8.84E-3
RCM  12   98   40E3
IB1  99   7    400E-6
IB2  99   29   200E-6
IB3  99   30   200E-6
IB4  99   31   200E-6
IB5  99   32   200E-6
IB6  99   33   200E-6
IB7  99   34   200E-6
IB8  99   13   400E-6
E1   7    50   POLY(1) 40 41 2.8 2.4
E2   13   50   POLY(1) 41 40 2.8 2.4
RB1  7    29   640
RB2  29   30   640
RB3  30   31   640
RB4  31   32   640
RB5  32   33   640
RB6  33   34   640
RB7  34   13   640
Q9   21   7    6    QN
Q10  22   29   6    QN
Q11  23   30   6    QN
Q12  24   31   6    QN
Q13  25   32   6    QN
Q14  26   33   6    QN
Q15  27   34   6    QN
Q16  28   13   6    QN
RC   40   41   15E6
CCTL 40   41   10.610E-15
I1   6    50   1.8E-3
R1   99   1    243.153
R2   99   4    243.153
*
* GAIN STAGE AND DOMINANT POLE AT 273HZ
*
EREF 98   0    POLY(2) 99 0 50 0 0 0.5 0.5
G1   98   8    4 1 4.113E-3
R5   8    98   243.153E6
C1   8    98   24E-13
V1   99   9    2.7
V2   10   50   2.7
D1   8    9    DX
D2   10   8    DX
*
* POLE AT 100MHZ
*
G5   98   35   8 98 1E-6
R11  35   98   1E6
C2   35   98   1.592E-15
*
* POLE AT 100MHZ
*
G6   98   36   35 98 1E-6
R12  36   98   1E6
C4   36   98   1.592E-15
*
* COMMON MODE GAIN STAGE WITH ZERO AT 200KHZ
*
ECM  37   98   5 98 1
R13  37   38   71.536
R14  38   98   1
C5   37   38   11.124E-9
*
* POLE AT 200MHZ
*
G3   98   45   36 98 1E-6
R10  45   98   1E6
C3   45   98   .796E-15
RGAT 70   98   30E3
MSW  45   71   98   50   MSWITCH W=100U L=10U
EGAT 71   98   POLY(1) 70 98 -5 3
*
* OUTPUT STAGE
*
GSY  99   50   POLY(1) 99 50 -11E-3 1.1E-3
FSY  99   50   POLY(2) V7 V8 18.9E-3 1 1
RO1  99   48   4
RO2  48   50   4
GO1  48   99   99 45 250E-3
GO2  50   48   45 50 250E-3
V4   48   46   -.516
V5   47   48   -.516
D5   46   45   DX
D6   45   47   DX
G4   98   44   48 45 250E-3
D7   44   42   DX
D8   43   44   DX
V7   42   98   0
V8   98   43   0
RF   11   48   2.242E3
RIN  11   2    20
.MODEL DX D(IS=1E-16)
.MODEL QN NPN(BF=1000)
.MODEL MSWITCH NMOS(VTO=2 KP=20)
.ENDS
**********
*SRC=AD600J;AD600J;Opamps;AD-"ADxxx";
*SYM=AD600
* AD600J SPICE Macro-model              Rev. A, 2/93
*                                       ARG / PMI
* Node assignments
*                input HI
*                |  input LO
*                |  |  positive supply
*                |  |  |  negative supply
*                |  |  |  |  output
*                |  |  |  |  |  control HI
*                |  |  |  |  |  |  control LO
*                |  |  |  |  |  |  |  gate input
*                |  |  |  |  |  |  |  |  output common
*                |  |  |  |  |  |  |  |  |
.SUBCKT AD600J   3  2  99 50 48 40 41 70 12
*
* INPUT STAGE
*
Q1A  1    3    21   QN
Q1B  4    5    21   QN
Q2A  1    14   22   QN
Q2B  4    5    22   QN
Q3A  1    15   23   QN
Q3B  4    5    23   QN
Q4A  1    16   24   QN
Q4B  4    5    24   QN
Q5A  1    17   25   QN
Q5B  4    5    25   QN
Q6A  1    18   26   QN
Q6B  4    5    26   QN
Q7A  1    19   27   QN
Q7B  4    5    27   QN
Q8A  1    20   28   QN
Q8B  4    5    28   QN
RT   3    2    500
RL1  3    14   62.5
RL2  14   2    125
RL3  14   15   62.5
RL4  15   2    125
RL5  15   16   62.5
RL6  16   2    125
RL7  16   17   62.5
RL8  17   2    125
RL9  17   18   62.5
RL10 18   2    125
RL11 18   19   62.5
RL12 19   2    125
RL13 19   20   62.5
RL14 20   2    62.5
EOS  11   5    POLY(2) 12 2 38 98 420E-6 8.84E-3 8.84E-3
RCM  12   98   40E3
IB1  99   7    400E-6
IB2  99   29   200E-6
IB3  99   30   200E-6
IB4  99   31   200E-6
IB5  99   32   200E-6
IB6  99   33   200E-6
IB7  99   34   200E-6
IB8  99   13   400E-6
E1   7    50   POLY(1) 40 41 2.8 2.4
E2   13   50   POLY(1) 41 40 2.8 2.4
RB1  7    29   640
RB2  29   30   640
RB3  30   31   640
RB4  31   32   640
RB5  32   33   640
RB6  33   34   640
RB7  34   13   640
Q9   21   7    6    QN
Q10  22   29   6    QN
Q11  23   30   6    QN
Q12  24   31   6    QN
Q13  25   32   6    QN
Q14  26   33   6    QN
Q15  27   34   6    QN
Q16  28   13   6    QN
RC   40   41   15E6
CCTL 40   41   10.610E-15
I1   6    50   1.8E-3
R1   99   1    243.153
R2   99   4    243.153
*
* GAIN STAGE AND DOMINANT POLE AT 273HZ
*
EREF 98   0    POLY(2) 99 0 50 0 0 0.5 0.5
G1   98   8    4 1 4.113E-3
R5   8    98   243.153E6
C1   8    98   24E-13
V1   99   9    3.2
V2   10   50   3.2
D1   8    9    DX
D2   10   8    DX
*
* POLE AT 100MHZ
*
G5   98   35   8 98 1E-6
R11  35   98   1E6
C2   35   98   1.592E-15
*
* POLE AT 100MHZ
*
G6   98   36   35 98 1E-6
R12  36   98   1E6
C4   36   98   1.592E-15
*
* COMMON MODE GAIN STAGE WITH ZERO AT 200KHZ
*
ECM  37   98   5 98 1
R13  37   38   71.536
R14  38   98   1
C5   37   38   11.124E-9
*
* POLE AT 200MHZ
*
G3   98   45   36 98 1E-6
R10  45   98   1E6
C3   45   98   .796E-15
RGAT 70   98   30E3
MSW  45   71   98   50   MSWITCH W=100U L=10U
EGAT 71   98   POLY(1) 70 98 -5 3
*
* OUTPUT STAGE
*
GSY  99   50   POLY(1) 99 50 -11E-3 1.1E-3
FSY  99   50   POLY(2) V7 V8 21.2E-3 1 1
RO1  99   48   4
RO2  48   50   4
GO1  48   99   99 45 250E-3
GO2  50   48   45 50 250E-3
V4   48   46   -.516
V5   47   48   -.516
D5   46   45   DX
D6   45   47   DX
G4   98   44   48 45 250E-3
D7   44   42   DX
D8   43   44   DX
V7   42   98   0
V8   98   43   0
RF   11   48   2.242E3
RIN  11   2    20
.MODEL DX D(IS=1E-16)
.MODEL QN NPN(BF=1000)
.MODEL MSWITCH NMOS(VTO=2 KP=20)
.ENDS
**********
*SRC=AD602;AD602;Opamps;AD-"ADxxx";
*SYM=AD600
* AD602 SPICE Macro-model               Rev. A, 2/93
*                                       ARG / PMI
* Node assignments
*                input HI
*                |  input LO
*                |  |  positive supply
*                |  |  |  negative supply
*                |  |  |  |  output
*                |  |  |  |  |  control HI
*                |  |  |  |  |  |  control LO
*                |  |  |  |  |  |  |  gate input
*                |  |  |  |  |  |  |  |  output common
*                |  |  |  |  |  |  |  |  |
.SUBCKT AD602    3  2  99 50 48 40 41 70 12
*
* INPUT STAGE
*
Q1A  1    3    21   QN
Q1B  4    5    21   QN
Q2A  1    14   22   QN
Q2B  4    5    22   QN
Q3A  1    15   23   QN
Q3B  4    5    23   QN
Q4A  1    16   24   QN
Q4B  4    5    24   QN
Q5A  1    17   25   QN
Q5B  4    5    25   QN
Q6A  1    18   26   QN
Q6B  4    5    26   QN
Q7A  1    19   27   QN
Q7B  4    5    27   QN
Q8A  1    20   28   QN
Q8B  4    5    28   QN
RT   3    2    500
RL1  3    14   62.5
RL2  14   2    125
RL3  14   15   62.5
RL4  15   2    125
RL5  15   16   62.5
RL6  16   2    125
RL7  16   17   62.5
RL8  17   2    125
RL9  17   18   62.5
RL10 18   2    125
RL11 18   19   62.5
RL12 19   2    125
RL13 19   20   62.5
RL14 20   2    62.5
EOS  11   5    POLY(2) 12 2 38 98 135E-6 8.84E-3 8.84E-3
RCM  12   98   40E3
IB1  99   7    400E-6
IB2  99   29   200E-6
IB3  99   30   200E-6
IB4  99   31   200E-6
IB5  99   32   200E-6
IB6  99   33   200E-6
IB7  99   34   200E-6
IB8  99   13   400E-6
E1   7    50   POLY(1) 40 41 2.8 2.4
E2   13   50   POLY(1) 41 40 2.8 2.4
RB1  7    29   640
RB2  29   30   640
RB3  30   31   640
RB4  31   32   640
RB5  32   33   640
RB6  33   34   640
RB7  34   13   640
Q9   21   7    6    QN
Q10  22   29   6    QN
Q11  23   30   6    QN
Q12  24   31   6    QN
Q13  25   32   6    QN
Q14  26   33   6    QN
Q15  27   34   6    QN
Q16  28   13   6    QN
RC   40   41   15E6
CCTL 40   41   10.610E-15
I1   6    50   1.8E-3
R1   99   1    243.153
R2   99   4    243.153
*
* GAIN STAGE AND DOMINANT POLE AT 87HZ
*
EREF 98   0    POLY(2) 99 0 50 0 0 0.5 0.5
G1   98   8    4 1 4.113E-3
R5   8    98   243.153E6
C1   8    98   75E-13
V1   99   9    2.7
V2   10   50   2.7
D1   8    9    DX
D2   10   8    DX
*
* POLE AT 100MHZ
*
G5   98   35   8 98 1E-6
R11  35   98   1E6
C2   35   98   1.592E-15
*
* POLE AT 100MHZ
*
G6   98   36   35 98 1E-6
R12  36   98   1E6
C4   36   98   1.592E-15
*
* COMMON MODE GAIN STAGE WITH ZERO AT 1MHZ
*
ECM  37   98   5 98 1
R13  37   38   71.536
R14  38   98   1
C5   37   38   2.225E-9
*
* POLE AT 200MHZ
*
G3   98   45   36 98 1E-6
R10  45   98   1E6
C3   45   98   .796E-15
RGAT 70   98   30E3
MSW  45   71   98   50   MSWITCH W=100U L=10U
EGAT 71   98   POLY(1) 70 98 -5 3
*
* OUTPUT STAGE
*
GSY  99   50   POLY(1) 99 50 -11E-3 1.1E-3
FSY  99   50   POLY(2) V7 V8 18.9E-3 1 1
RO1  99   48   4
RO2  48   50   4
GO1  48   99   99 45 250E-3
GO2  50   48   45 50 250E-3
V4   48   46   -.516
V5   47   48   -.516
D5   46   45   DX
D6   45   47   DX
G4   98   44   48 45 250E-3
D7   44   42   DX
D8   43   44   DX
V7   42   98   0
V8   98   43   0
RF   11   48   695.37
RIN  11   2    20
.MODEL DX D(IS=1E-16)
.MODEL QN NPN(BF=1000)
.MODEL MSWITCH NMOS(VTO=2 KP=20)
.ENDS
**********
*SRC=AD602J;AD602J;Opamps;AD-"ADxxx";
*SYM=AD600
* AD602J SPICE Macro-model              Rev. A, 2/93
*                                       ARG / PMI
* Node assignments
*                input HI
*                |  input LO
*                |  |  positive supply
*                |  |  |  negative supply
*                |  |  |  |  output
*                |  |  |  |  |  control HI
*                |  |  |  |  |  |  control LO
*                |  |  |  |  |  |  |  gate input
*                |  |  |  |  |  |  |  |  output common
*                |  |  |  |  |  |  |  |  |
.SUBCKT AD602J   3  2  99 50 48 40 41 70 12
*
* INPUT STAGE
*
Q1A  1    3    21   QN
Q1B  4    5    21   QN
Q2A  1    14   22   QN
Q2B  4    5    22   QN
Q3A  1    15   23   QN
Q3B  4    5    23   QN
Q4A  1    16   24   QN
Q4B  4    5    24   QN
Q5A  1    17   25   QN
Q5B  4    5    25   QN
Q6A  1    18   26   QN
Q6B  4    5    26   QN
Q7A  1    19   27   QN
Q7B  4    5    27   QN
Q8A  1    20   28   QN
Q8B  4    5    28   QN
RT   3    2    500
RL1  3    14   62.5
RL2  14   2    125
RL3  14   15   62.5
RL4  15   2    125
RL5  15   16   62.5
RL6  16   2    125
RL7  16   17   62.5
RL8  17   2    125
RL9  17   18   62.5
RL10 18   2    125
RL11 18   19   62.5
RL12 19   2    125
RL13 19   20   62.5
RL14 20   2    62.5
EOS  11   5    POLY(2) 12 2 38 98 820E-6 8.84E-3 8.84E-3
RCM  12   98   40E3
IB1  99   7    400E-6
IB2  99   29   200E-6
IB3  99   30   200E-6
IB4  99   31   200E-6
IB5  99   32   200E-6
IB6  99   33   200E-6
IB7  99   34   200E-6
IB8  99   13   400E-6
E1   7    50   POLY(1) 40 41 2.8 2.4
E2   13   50   POLY(1) 41 40 2.8 2.4
RB1  7    29   640
RB2  29   30   640
RB3  30   31   640
RB4  31   32   640
RB5  32   33   640
RB6  33   34   640
RB7  34   13   640
Q9   21   7    6    QN
Q10  22   29   6    QN
Q11  23   30   6    QN
Q12  24   31   6    QN
Q13  25   32   6    QN
Q14  26   33   6    QN
Q15  27   34   6    QN
Q16  28   13   6    QN
RC   40   41   15E6
CCTL 40   41   10.610E-15
I1   6    50   1.8E-3
R1   99   1    243.153
R2   99   4    243.153
*
* GAIN STAGE AND DOMINANT POLE AT 87HZ
*
EREF 98   0    POLY(2) 99 0 50 0 0 0.5 0.5
G1   98   8    4 1 4.113E-3
R5   8    98   243.153E6
C1   8    98   75E-13
V1   99   9    3.2
V2   10   50   3.2
D1   8    9    DX
D2   10   8    DX
*
* POLE AT 100MHZ
*
G5   98   35   8 98 1E-6
R11  35   98   1E6
C2   35   98   1.592E-15
*
* POLE AT 100MHZ
*
G6   98   36   35 98 1E-6
R12  36   98   1E6
C4   36   98   1.592E-15
*
* COMMON MODE GAIN STAGE WITH ZERO AT 1MHZ
*
ECM  37   98   5 98 1
R13  37   38   71.536
R14  38   98   1
C5   37   38   2.225E-9
*
* POLE AT 200MHZ
*
G3   98   45   36 98 1E-6
R10  45   98   1E6
C3   45   98   .796E-15
RGAT 70   98   30E3
MSW  45   71   98   50   MSWITCH W=100U L=10U
EGAT 71   98   POLY(1) 70 98 -5 3
*
* OUTPUT STAGE
*
GSY  99   50   POLY(1) 99 50 -11E-3 1.1E-3
FSY  99   50   POLY(2) V7 V8 21.2E-3 1 1
RO1  99   48   4
RO2  48   50   4
GO1  48   99   99 45 250E-3
GO2  50   48   45 50 250E-3
V4   48   46   -.516
V5   47   48   -.516
D5   46   45   DX
D6   45   47   DX
G4   98   44   48 45 250E-3
D7   44   42   DX
D8   43   44   DX
V7   42   98   0
V8   98   43   0
RF   11   48   695.37
RIN  11   2    20
.MODEL DX D(IS=1E-16)
.MODEL QN NPN(BF=1000)
.MODEL MSWITCH NMOS(VTO=2 KP=20)
.ENDS
**********
*SRC=AD780;AD780;Opamps;AD-"ADxxx";
*SYM=AD780
* AD780 SPICE Macromodel 5/93, Rev. A
* AAG / PMI
*
*  NODE NUMBERS
*              VIN
*              |  TEMP
*              |  |  GND
*              |  |  |  TRIM
*              |  |  |  |  VOUT
*              |  |  |  |  |  RANGE
*              |  |  |  |  |  |
.SUBCKT AD780  2  3  4  5  6  8
*
* BANDGAP REFERENCE
*
I1 4 40 DC 1.21417E-3
R1 40 4 1E3 RMOD
.MODEL RMOD R TC1=3E-6
EN 10 40 42 0 1
G1 4 10 2 4 4.85668E-9
F1 4 10 POLY(2) VS1 VS2 0 2.42834E-5 3.8E-5
Q1 2 10 11 QT
I2 11 4 DC 12.84E-6
R2 11 3 1E3
I3 3 4 DC 0
*
* NOISE VOLTAGE GENERATOR
*
VN1 41 0 DC 2
DN1 41 42 DEN
DN2 42 43 DEN
VN2 0 43 DC 2
*
* INTERNAL OP AMP
*
G2 4 12 10 20 1.93522E-4
R3 12 4 2.5837E9
C1 12 4 6.8444E-11
D1 12 13 DX
V1 2 13 DC 1.2
*
* SECONDARY POLE @ 508 kHz
*
G3 4 14 12 4 1E-6
R4 14 4 1E6
C2 14 4 3.1831E-13
*
* OUTPUT STAGE
*
ISY 2 4 4.3282E-4
FSY 2 4 V1 -1
RSY 2 4 500E3
*
G4 4 15 14 4 25E-6
R5 15 4 40E3
Q2 4 15 16 QP
I4 2 16 DC 100E-6
Q3 4 16 18 QP
R6 18 23 15
R7 16 21 150E3
R8 2 17 34.6
Q4 17 16 19 QN
R9 21 20 6.46E3
R10 20 4 6.1E3
R11 20 5 53E3
R12 20 8 15.6E3
I5 5 4 DC 0
I6 8 4 DC 0
VS1 21 19 DC 0
VS2 23 21 DC 0
L1 21 6 1E-7
*
* OUTPUT CURRENT LIMIT
*
FSC 15 4 VSC 1
VSC 2 22 DC 0
QSC 22 2 17 QN
*
.MODEL QT NPN(IS=1.53E-16 BF=1E4)
.MODEL QN NPN(IS=1E-15 BF=1E3)
.MODEL QP PNP(IS=1E-15 BF=1E3)
.MODEL DX D(IS=1E-15)
.MODEL DEN D(IS=1E-12 RS=2.425E+05 AF=1 KF=6.969E-16)
.ENDS
**********
*SRC=AD780A;AD780A;Opamps;AD-"ADxxx";
*SYM=AD780
* AD780A SPICE Macromodel 5/93, Rev. A
* AAG / PMI
*
*  NODE NUMBERS
*              VIN
*               |  TEMP
*               |  |  GND
*               |  |  |  TRIM
*               |  |  |  |  VOUT
*               |  |  |  |  |  RANGE
*               |  |  |  |  |  |
.SUBCKT AD780A  2  3  4  5  6  8
*
* BANDGAP REFERENCE
*
I1 4 40 DC 1.21174E-3
R1 40 4 1E3 RMOD
.MODEL RMOD R TC1=7E-6
EN 10 40 42 0 1
G1 4 10 2 4 4.85668E-9
F1 4 10 POLY(2) VS1 VS2 0 2.42834E-5 3.8E-5
Q1 2 10 11 QT
I2 11 4 DC 12.84E-6
R2 11 3 1E3
I3 3 4 DC 0
*
* NOISE VOLTAGE GENERATOR
*
VN1 41 0 DC 2
DN1 41 42 DEN
DN2 42 43 DEN
VN2 0 43 DC 2
*
* INTERNAL OP AMP
*
G2 4 12 10 20 1.93522E-4
R3 12 4 2.5837E9
C1 12 4 6.8444E-11
D1 12 13 DX
V1 2 13 DC 1.2
*
* SECONDARY POLE @ 508 kHz
*
G3 4 14 12 4 1E-6
R4 14 4 1E6
C2 14 4 3.1831E-13
*
* OUTPUT STAGE
*
ISY 2 4 6.8282E-4
FSY 2 4 V1 -1
RSY 2 4 500E3
*
G4 4 15 14 4 25E-6
R5 15 4 40E3
Q2 4 15 16 QP
I4 2 16 DC 100E-6
Q3 4 16 18 QP
R6 18 23 15
R7 16 21 150E3
R8 2 17 34.6
Q4 17 16 19 QN
R9 21 20 6.46E3
R10 20 4 6.1E3
R11 20 5 53E3
R12 20 8 15.6E3
I5 5 4 DC 0
I6 8 4 DC 0
VS1 21 19 DC 0
VS2 23 21 DC 0
L1 21 6 1E-7
*
* OUTPUT CURRENT LIMIT
*
FSC 15 4 VSC 1
VSC 2 22 DC 0
QSC 22 2 17 QN
*
.MODEL QT NPN(IS=1.68E-16 BF=1E4)
.MODEL QN NPN(IS=1E-15 BF=1E3)
.MODEL QP PNP(IS=1E-15 BF=1E3)
.MODEL DX D(IS=1E-15)
.MODEL DEN D(IS=1E-12 RS=2.425E+05 AF=1 KF=6.969E-16)
.ENDS
**********
*SRC=AD780B;AD780B;Opamps;AD-"ADxxx";
*SYM=AD780
* AD780B SPICE Macromodel 5/93, Rev. A
* AAG / PMI
*
*  NODE NUMBERS
*              VIN
*               |  TEMP
*               |  |  GND
*               |  |  |  TRIM
*               |  |  |  |  VOUT
*               |  |  |  |  |  RANGE
*               |  |  |  |  |  |
.SUBCKT AD780B  2  3  4  5  6  8
*
* BANDGAP REFERENCE
*
I1 4 40 DC 1.21369E-3
R1 40 4 1E3 RMOD
.MODEL RMOD R TC1=3E-6
EN 10 40 42 0 1
G1 4 10 2 4 4.85668E-9
F1 4 10 POLY(2) VS1 VS2 0 2.42834E-5 3.8E-5
Q1 2 10 11 QT
I2 11 4 DC 12.84E-6
R2 11 3 1E3
I3 3 4 DC 0
*
* NOISE VOLTAGE GENERATOR
*
VN1 41 0 DC 2
DN1 41 42 DEN
DN2 42 43 DEN
VN2 0 43 DC 2
*
* INTERNAL OP AMP
*
G2 4 12 10 20 1.93522E-4
R3 12 4 2.5837E9
C1 12 4 6.8444E-11
D1 12 13 DX
V1 2 13 DC 1.2
*
* SECONDARY POLE @ 508 kHz
*
G3 4 14 12 4 1E-6
R4 14 4 1E6
C2 14 4 3.1831E-13
*
* OUTPUT STAGE
*
ISY 2 4 6.8282E-4
FSY 2 4 V1 -1
RSY 2 4 500E3
*
G4 4 15 14 4 25E-6
R5 15 4 40E3
Q2 4 15 16 QP
I4 2 16 DC 100E-6
Q3 4 16 18 QP
R6 18 23 15
R7 16 21 150E3
R8 2 17 34.6
Q4 17 16 19 QN
R9 21 20 6.46E3
R10 20 4 6.1E3
R11 20 5 53E3
R12 20 8 15.6E3
I5 5 4 DC 0
I6 8 4 DC 0
VS1 21 19 DC 0
VS2 23 21 DC 0
L1 21 6 1E-7
*
* OUTPUT CURRENT LIMIT
*
FSC 15 4 VSC 1
VSC 2 22 DC 0
QSC 22 2 17 QN
*
.MODEL QT NPN(IS=1.56E-16 BF=1E4)
.MODEL QN NPN(IS=1E-15 BF=1E3)
.MODEL QP PNP(IS=1E-15 BF=1E3)
.MODEL DX D(IS=1E-15)
.MODEL DEN D(IS=1E-12 RS=2.425E+05 AF=1 KF=6.969E-16)
.ENDS
**********
*SRC=AD780S;AD780S;Opamps;AD-"ADxxx";
*SYM=AD780
* AD780S SPICE Macromodel 5/93, Rev. A
* AAG / PMI
*
*  NODE NUMBERS
*              VIN
*               |  TEMP
*               |  |  GND
*               |  |  |  TRIM
*               |  |  |  |  VOUT
*               |  |  |  |  |  RANGE
*               |  |  |  |  |  |
.SUBCKT AD780S  2  3  4  5  6  8
*
* BANDGAP REFERENCE
*
I1 4 40 DC 1.21174E-3
R1 40 4 1E3 RMOD
.MODEL RMOD R TC1=20E-6
EN 10 40 42 0 1
G1 4 10 2 4 4.85668E-9
F1 4 10 POLY(2) VS1 VS2 0 2.42834E-5 7.6E-5
Q1 2 10 11 QT
I2 11 4 DC 12.84E-6
R2 11 3 1E3
I3 3 4 DC 0
*
* NOISE VOLTAGE GENERATOR
*
VN1 41 0 DC 2
DN1 41 42 DEN
DN2 42 43 DEN
VN2 0 43 DC 2
*
* INTERNAL OP AMP
*
G2 4 12 10 20 1.93522E-4
R3 12 4 2.5837E9
C1 12 4 6.8444E-11
D1 12 13 DX
V1 2 13 DC 1.2
*
* SECONDARY POLE @ 508 kHz
*
G3 4 14 12 4 1E-6
R4 14 4 1E6
C2 14 4 3.1831E-13
*
* OUTPUT STAGE
*
ISY 2 4 9.8282E-4
FSY 2 4 V1 -1
RSY 2 4 500E3
*
G4 4 15 14 4 25E-6
R5 15 4 40E3
Q2 4 15 16 QP
I4 2 16 DC 100E-6
Q3 4 16 18 QP
R6 18 23 15
R7 16 21 150E3
R8 2 17 34.6
Q4 17 16 19 QN
R9 21 20 6.46E3
R10 20 4 6.1E3
R11 20 5 53E3
R12 20 8 15.6E3
I5 5 4 DC 0
I6 8 4 DC 0
VS1 21 19 DC 0
VS2 23 21 DC 0
L1 21 6 1E-7
*
* OUTPUT CURRENT LIMIT
*
FSC 15 4 VSC 1
VSC 2 22 DC 0
QSC 22 2 17 QN
*
.MODEL QT NPN(IS=1.68E-16 BF=1E4)
.MODEL QN NPN(IS=1E-15 BF=1E3)
.MODEL QP PNP(IS=1E-15 BF=1E3)
.MODEL DX D(IS=1E-15)
.MODEL DEN D(IS=1E-12 RS=2.425E+05 AF=1 KF=6.969E-16)
.ENDS
**********
*SRC=AD817;AD817;Opamps;AD-"ADxxx";
*SYM=ADOPAMP
* AD817 SPICE Macro-model               Rev. A, 11/92
*                                       ARG / ADI
* Node assignments
*                non-inverting input
*                |  inverting input
*                |  |  positive supply
*                |  |  |  negative supply
*                |  |  |  |  output
*                |  |  |  |  |
.SUBCKT AD817    2  1  99 50 46
*
* INPUT STAGE AND POLE AT 160MHZ
*
I1   8    50   1E-3
Q1   4    1    6    QN
Q2   5    3    7    QN
CIN  1    2    1.5PF
R1   99   4    1.188K
R2   99   5    1.188K
C1   4    5    4.187E-13
R3   6    8    1.137K
R4   7    8    1.137K
IOS  1    2    12.5E-9
EOS  3    2    POLY(1) 15 98 0.5E-3 10
*
* GAIN STAGE AND DOMINANT POLE AT 8.8KHZ
*
EREF 98   0    POLY(2) 99 0 50 0 0 0.5 0.5
G1   98   9    4 5 .8415E-3
R5   9    98   5.942E6
C2   9    98   3.045E-12
D1   9    10   DX
D2   11   9    DX
V1   99   10   1.83
V2   11   50   1.83
*
* COMMON MODE STAGE WITH ZERO AT 3.16KHZ
*
ECM  14   98   POLY(2) 1 98 2 98 0 0.5 0.5
R7   14   15   1E6
C4   14   15   5.036E-11
R8   15   98   1
*
*POLE AT 120MHZ
*
GP2  98   31   9 98 1E-6
RP2  31   98   1E6
CP2  31   98   1.326E-15
*
*ZERO AT 60MHZ
*
EZ1  32   98   31 98 1E6
RZ1  32   33   1E6   
RZ2  33   98   1
CZ1  32   33   2.65E-15
*
*ZERO AT 100MHZ
*
EZ2  34   98   33 98 1E6
RZ3  34   35   1E6
RZ4  35   98   1
CZ2  34   35   1.59E-15
*
*POLE AT 120MHZ
*
GP3  98   36   35 98 1E-6
RP3  36   98   1E6
CP3  36   98   1.326E-15
*
*POLE AT 160MHZ
*
GP10  98   40   36 98 1E-6
RP10  40   98   1E6
CP10  40   98   .995E-15
*
* OUTPUT STAGE
*
RO1  99   45   16
RO2  45   50   16
G7   45   99   99 40 62.5E-3
G8   50   45   40 50 62.5E-3
G9   98   60   45 40 62.5E-3
D7   60   61   DX
D8   62   60   DX
V7   61   98   DC 0
V8   98   62   DC 0
GSY  99   50   99 50 7.692E-6
FSY  99   50   POLY(2) V7 V8 5.77E-3  1  1
D9   41   45   DX
D10  45   42   DX
V5   40   41   0.04
V6   42   40   0.04
LO   45   46   .06E-9
*
* MODELS USED
*
.MODEL DX D
.MODEL QN NPN(BF=151.52)
.ENDS
**********
*SRC=AD817A;AD817A;Opamps;AD-"ADxxx";
*SYM=ADOPAMP
* AD817A SPICE Macro-model              Rev. A  11/92
*                                       ARG / ADI
* Node assignments
*                non-inverting input
*                |  inverting input
*                |  |  positive supply
*                |  |  |  negative supply
*                |  |  |  |  output
*                |  |  |  |  |
.SUBCKT AD817A   2  1  99 50 46
*
* INPUT STAGE AND POLE AT 160MHZ
*
I1   8    50   1E-3
Q1   4    1    6    QN
Q2   5    3    7    QN
CIN  1    2    1.5PF
R1   99   4    1.085K
R2   99   5    1.085K
C1   4    5    4.187E-13
R3   6    8    1.033K
R4   7    8    1.033K
IOS  1    2    100E-9
EOS  3    2    POLY(1) 15 98 2E-3 50.119
*
* GAIN STAGE AND DOMINANT POLE AT 8.8KHZ
*
EREF 98   0    POLY(2) 99 0 50 0 0 0.5 0.5
G1   98   9    4 5 .922E-3
R5   9    98   4.341E6
C2   9    98   3.333E-12
D1   9    10   DX
D2   11   9    DX
V1   99   10   2.43
V2   11   50   2.43
*
* COMMON MODE STAGE WITH ZERO AT 15.849KHZ
*
ECM  14   98   POLY(2) 1 98 2 98 0 0.5 0.5
R7   14   15   1E6
C4   14   15   10.042E-12
R8   15   98   1
*
*POLE AT 120MHZ
*
GP2  98   31   9 98 1E-6
RP2  31   98   1E6
CP2  31   98   1.326E-15
*
*ZERO AT 60MHZ
*
EZ1  32   98   31 98 1E6
RZ1  32   33   1E6   
RZ2  33   98   1
CZ1  32   33   2.65E-15
*
*ZERO AT 100MHZ
*
EZ2  34   98   33 98 1E6
RZ3  34   35   1E6
RZ4  35   98   1
CZ2  34   35   1.59E-15
*
*POLE AT 120MHZ
*
GP3  98   36   35 98 1E-6
RP3  36   98   1E6
CP3  36   98   1.326E-15
*
*POLE AT 160MHZ
*
GP10  98   40   36 98 1E-6
RP10  40   98   1E6
CP10  40   98   .995E-15
*
* OUTPUT STAGE
*
RO1  99   45   16
RO2  45   50   16
G7   45   99   99 40 62.5E-3
G8   50   45   40 50 62.5E-3
G9   98   60   45 40 62.5E-3
D7   60   61   DX
D8   62   60   DX
V7   61   98   DC  0
V8   98   62   DC  0
GSY  99   50   99 50 7.692E-6
FSY  99   50   POLY(2) V7 V8 6.27E-3  1  1
D9   41   45   DX
D10  45   42   DX
V5   40   41   0.04
V6   42   40   0.04
LO   45   46   .06E-9
*
* MODELS USED
*
.MODEL DX D
.MODEL QN NPN(BF=75.758)
.ENDS
**********
*SRC=AD818;AD818;Opamps;AD-"ADxxx";
*SYM=ADOPAMP
* AD818 SPICE Model                     Rev. A, 4/93
*                                       ARG / PMI
* Node assignments
*                non-inverting input
*                |  inverting input
*                |  |  positive supply
*                |  |  |  negative supply
*                |  |  |  |  output
*                |  |  |  |  |
.SUBCKT AD818    2  1  99 50 46
*
* INPUT STAGE AND POLE AT 400MHZ
*
I1   4    50   1E-3
CIN  1    2    1.5E-12
IOS  2    1    12.5E-9
Q1   5    1    7    QN
Q2   6    3    8    QN
R3   99   5    833
R4   99   6    833
R5   7    4    782
R6   8    4    782
C1   5    6    239E-15
EOS  3    2    POLY(1) 13 98 500E-6 0.1
*
* GAIN STAGE AND DOMINANT POLE AT 10.6KHZ
*
EREF 98   0    39 0 1
G1   98   9    5 6 1.2E-3
R7   9    98   7.5E6
C2   9    98   2E-12
D1   9    10   DX
D2   11   9    DX
V1   99   10   1.8
V2   11   50   1.8
*
* COMMON MODE GAIN STAGE WITH ZERO AT 100HZ
*
ECM  12   98   POLY(2) 1 39 2 39 0 0.5 0.5
R8   12   13   1E6
R9   13   98   10
C3   12   13   1.592E-9
*
* NEGATIVE ZERO AT 150MHZ
*
E1   14   98   9 39 1E6
R11  14   15   1
R12  15   98   1E-6
FNZ  14   15   VNZ -1
ENZ  16   98   14 15 1
VNZ  17   98   DC 0
CNZ  16   17   1.061E-9
*
* ZERO/POLE AT 20MHZ/25MHZ
*
E2   18   98   15 39 1.25
R13  18   19   1
R14  19   98   4
C5   18   19   7.958E-9
*
* POLE AT 400MHZ
*
G2   98   40   19 39 1E-6
R10  40   98   1E6
C4   40   98   .398E-15
*
* OUTPUT STAGE
*
RS1  99   39   65E3
RS2  39   50   65E3
RO1  99   45   16
RO2  45   50   16
G7   45   99   99 40 62.5E-3
G8   50   45   40 50 62.5E-3
G9   98   60   45 40 62.5E-3
D7   60   61   DX
D8   62   60   DX
V7   61   98   DC 0
V8   98   62   DC 0
FSY  99   50   POLY(2) V7 V8 5.77E-3 1 1
D9   41   45   DX
D10  45   42   DX
V5   40   41   0.18
V6   42   40   0.18
LO   45   46   5E-8
.MODEL QN NPN(BF=151.52)
.MODEL DX D
.ENDS
**********
*SRC=AD818A;AD818A;Opamps;AD-"ADxxx";
*SYM=ADOPAMP
* AD818A SPICE Model                    Rev. A, 4/93
*                                       ARG / PMI
* Node assignments
*                non-inverting input
*                |  inverting input
*                |  |  positive supply
*                |  |  |  negative supply
*                |  |  |  |  output
*                |  |  |  |  |
.SUBCKT AD818A   2  1  99 50 46
*
* INPUT STAGE AND POLE AT 400MHZ
*
I1   4    50   1E-3
CIN  1    2    1.5E-12
IOS  2    1    100E-9
Q1   5    1    7    QN
Q2   6    3    8    QN
R3   99   5    750
R4   99   6    750
R5   7    4    698
R6   8    4    698
C1   5    6    239E-15
EOS  3    2    POLY(1) 13 98 2E-3 5
*
* GAIN STAGE AND DOMINANT POLE AT 15.9KHZ
*
EREF 98   0    39 0 1
G1   98   9    5 6 1.333E-3
R7   9    98   4.5E6
C2   9    98   2.222E-12
D1   9    10   DX
D2   11   9    DX
V1   99   10   2.2
V2   11   50   2.2
*
* COMMON MODE GAIN STAGE WITH ZERO AT 5KHZ
*
ECM  12   98   POLY(2) 1 39 2 39 0 0.5 0.5
R8   12   13   1E6
R9   13   98   10
C3   12   13   31.831E-9
*
* NEGATIVE ZERO AT 150MHZ
*
E1   14   98   9 39 1E6
R11  14   15   1
R12  15   98   1E-6
FNZ  14   15   VNZ -1
ENZ  16   98   14 15 1
VNZ  17   98   DC 0
CNZ  16   17   1.061E-9
*
* ZERO/POLE AT 20MHZ/25MHZ
*
E2   18   98   15 39 1.25
R13  18   19   1
R14  19   98   4
C5   18   19   7.958E-9
*
* POLE AT 400MHZ
*
G2   98   40   19 39 1E-6
R10  40   98   1E6
C4   40   98   .398E-15
*
* OUTPUT STAGE
*
RS1  99   39   65E3
RS2  39   50   65E3
RO1  99   45   16
RO2  45   50   16
G7   45   99   99 40 62.5E-3
G8   50   45   40 50 62.5E-3
G9   98   60   45 40 62.5E-3
D7   60   61   DX
D8   62   60   DX
V7   61   98   DC 0
V8   98   62   DC 0
FSY  99   50   POLY(2) V7 V8 6.27E-3 1 1
D9   41   45   DX
D10  45   42   DX
V5   40   41   0.18
V6   42   40   0.18
LO   45   46   5E-8
.MODEL QN NPN(BF=75.758)
.MODEL DX D
.ENDS
**********
*SRC=AD826;AD826;Opamps;AD-"ADxxx";
*SYM=ADOPAMP
* AD826 SPICE Macro-model               Rev. A, 11/92
*                                       ARG / ADI
* Node assignments
*                non-inverting input
*                |  inverting input
*                |  |  positive supply
*                |  |  |  negative supply
*                |  |  |  |  output
*                |  |  |  |  |
.SUBCKT AD826    2  1  99 50 46
*
* INPUT STAGE AND POLE AT 160MHZ
*
I1   8    50   1E-3
Q1   4    1    6    QN
Q2   5    3    7    QN
CD   1    2    1.5E-12
CC1  1    0    2.4E-12
CC2  2    0    2.4E-12
R1   99   4    1.114E3
R2   99   5    1.114E3
C1   4    5    .446E-12
R3   6    8    1.062E3
R4   7    8    1.062E3
IOS  1    2    25E-9
EOS  3    2    POLY(1) 15 39 0.5E-3 .1
*
* GAIN STAGE AND DOMINANT POLE AT 8.333KHZ
*
EREF 98   0    39 0 1
G1   98   9    4 5 .898E-3
R5   9    98   6.685E6
C2   9    98   2.857E-12
D1   9    10   DX
D2   11   9    DX
V1   99   10   1.83
V2   11   50   1.83
*
* COMMON MODE STAGE WITH ZERO AT 316HZ
*
ECM  14   98   POLY(2) 1 39 2 39 0 0.5 0.5
R7   14   15   1E6
C4   14   15   503.3E-12
R8   15   98   10
*
*POLE AT 120MHZ
*
GP2  98   31   9 39 1E-6
RP2  31   98   1E6
CP2  31   98   1.326E-15
*
*ZERO AT 75MHZ
*
EZ1  32   98   31 39 1E6
RZ1  32   33   1E6   
RZ2  33   98   1
CZ1  32   33   2.12E-15
*
*ZERO AT 100MHZ
*
EZ2  34   98   33 39 1E6
RZ3  34   35   1E6
RZ4  35   98   1
CZ2  34   35   1.59E-15
*
*POLE AT 160MHZ
*
GP3  98   36   35 39 1E-6
RP3  36   98   1E6
CP3  36   98   .995E-15
*
*POLE AT 160MHZ
*
GP10 98   40   36 39 1E-6
RP10 40   98   1E6
CP10 40   98   .995E-15
*
* OUTPUT STAGE
*
RS1  99   39   65.217E3
RS2  39   50   65.217E3
RO1  99   45   16
RO2  45   50   16
G7   45   99   99 40 62.5E-3
G8   50   45   40 50 62.5E-3
G9   98   60   45 40 62.5E-3
D7   60   61   DX
D8   62   60   DX
V7   61   98   DC 0
V8   98   62   DC 0
FSY  99   50   POLY(2) V7 V8 5.77E-3 1 1
D9   41   45   DX
D10  45   42   DX
V5   40   41   .4
V6   42   40   .4
LO   45   46   .06E-9
*
* MODELS USED
*
.MODEL DX D(IS=1E-12)
.MODEL QN NPN(BF=150.52)
.ENDS
**********
*SRC=AD826A;AD826A;Opamps;AD-"ADxxx";
*SYM=ADOPAMP
* AD826A SPICE Macro-model              Rev. A, 11/92
*                                       ARG / ADI
* Node assignments
*                non-inverting input
*                |  inverting input
*                |  |  positive supply
*                |  |  |  negative supply
*                |  |  |  |  output
*                |  |  |  |  |
.SUBCKT AD826A   2  1  99 50 46
*
* INPUT STAGE AND POLE AT 160MHZ
*
I1   8    50   1E-3
Q1   4    1    6    QN
Q2   5    3    7    QN
CD   1    2    1.5E-12
CC1  1    0    2.4E-12
CC2  2    0    2.4E-12
R1   99   4    955
R2   99   5    955
C1   4    5    .521E-12
R3   6    8    903
R4   7    8    903
IOS  1    2   150E-9
EOS  3    2    POLY(1) 15 39 2E-3 5
*
* GAIN STAGE AND DOMINANT POLE AT 12.5KHZ
*
EREF 98   0    39 0 1
G1   98   9    4 5 1.047E-3
R5   9    98   3.820E6
C2   9    98   3.333E-12