*********
*SRC=AD581;AD581;Voltage Ref.;Analog Devices;10V
*SYM=ADREF2
* AD581 SPICE Macromodel 11/93, Rev. A
* AAG / PMI
*
* Copyright 1993 by Analog Devices, Inc.
*
*  NODE NUMBERS
*              10.0 V
*              |  GND
*              |  |  VIN
*              |  |  | 
.SUBCKT AD581  1  4  8
*
* BANDGAP REFERENCE
*
I1 4 10 DC 1.21485E-3
R1 10 4 1E3 RMOD
.MODEL RMOD R TC1=30E-6
EN 10 11 41 0 1
G1 4 11 8 4 2.430243E-8
F1 4 11 POLY(2) VS1 VS2  0 2.43024E-5 2.43024E-5 
*
* NOISE VOLTAGE GENERATOR
*
VN1 40 0 DC 2
DN1 40 41 DEN
CN 41 0 50E-12
DN2 41 42 DEN
VN2 0 42 DC 2
*
* INTERNAL OP AMP AND DOMINANT POLE @ 5 Hz
*
G2 4 7 11 6 1E-3
R2 7 4 1E8
C1 7 4 3.1831E-10
D1 7 12 DX
V1 8 12 DC 1.5
*
* SECONDARY POLE @ 1 MHz
*
G3 4 13 7 4 1E-6
R3 13 4 1E6
C2 13 4 1.5915E-13
*
* OUTPUT STAGE
*
ISY 8 4 3.5027E-4
FSY 8 4 V1 -1
*
G4 4 14 13 4 20E-6
R4 14 4 50E3
FSC 14 4 VSC 1
Q1 4 14 5 QP
I2 8 5 DC 100E-6
VSC 8 15 DC 0
QSC 15 8 16 QN
RSC 8 16 24.5
Q2 16 5 17 QN
VS1 19 17 DC 0
Q3 4 5 18 QP
VS2 18 19 DC 0
R5 19 2 16.667E3
R6 2 3 8.3333E3
R7 3 6 4.2827E3
R8 6 4 4.05E3
LO 19 1 1E-7
*
.MODEL QN NPN(IS=1E-15 BF=1E3)
.MODEL QP PNP(IS=1E-15 BF=1E3)
.MODEL DX D(IS=1E-15)
.MODEL DEN D(IS=1E-12 RS=4.56436E5 AF=1 KF=2.81234E-17)
.ENDS
**********
*SRC=AD581J;AD581J;Voltage Ref.;Analog Devices;10V
*SYM=ADREF2
* AD581J SPICE Macromodel 11/93, Rev. A
* AAG / PMI
*
* This version of the AD581 voltage reference model simulates the worst case
* parameters of the 'J' grade.  The worst case parameters used correspond
* to those parameters in the data sheet.
*
* Copyright 1993 by Analog Devices, Inc.
*
*  NODE NUMBERS
*               10.0 V
*               |  GND
*               |  |  VIN
*               |  |  |
.SUBCKT AD581J  1  4  8
*
* BANDGAP REFERENCE
*
I1 4 10 DC 1.2112E-3
R1 10 4 1E3 RMOD
.MODEL RMOD R TC1=30E-6
EN 10 11 41 0 1
G1 4 11 8 4 2.430243E-8
F1 4 11 POLY(2) VS1 VS2  0 6.0756E-5 6.0756E-5 
*
* NOISE VOLTAGE GENERATOR
*
VN1 40 0 DC 2
DN1 40 41 DEN
CN 41 0 50E-12
DN2 41 42 DEN
VN2 0 42 DC 2
*
* INTERNAL OP AMP AND DOMINANT POLE @ 5 Hz
*
G2 4 7 11 6 1E-3
R2 7 4 1E8
C1 7 4 3.1831E-10
D1 7 12 DX
V1 8 12 DC 1.5
*
* SECONDARY POLE @ 1 MHz
*
G3 4 13 7 4 1E-6
R3 13 4 1E6
C2 13 4 1.5915E-13
*
* OUTPUT STAGE
*
ISY 8 4 6.015E-4
FSY 8 4 V1 -1
*
G4 4 14 13 4 20E-6
R4 14 4 50E3
FSC 14 4 VSC 1
Q1 4 14 5 QP
I2 8 5 DC 100E-6
VSC 8 15 DC 0
QSC 15 8 16 QN
RSC 8 16 24.5
Q2 16 5 17 QN
VS1 19 17 DC 0
Q3 4 5 18 QP
VS2 18 19 DC 0
R5 19 2 16.667E3
R6 2 3 8.3333E3
R7 3 6 4.2827E3
R8 6 4 4.05E3
LO 19 1 1E-7
*
.MODEL QN NPN(IS=1E-15 BF=1E3)
.MODEL QP PNP(IS=1E-15 BF=1E3)
.MODEL DX D(IS=1E-15)
.MODEL DEN D(IS=1E-12 RS=4.56436E5 AF=1 KF=2.81234E-17)
.ENDS
**********
*SRC=AD581K;AD581K;Voltage Ref.;Analog Devices;10V
*SYM=ADREF2
* AD581K SPICE Macromodel 11/93, Rev. A
* AAG / PMI
*
* This version of the AD581 voltage reference model simulates the worst case
* parameters of the 'K' grade.  The worst case parameters used correspond
* to those parameters in the data sheet.
*
* Copyright 1993 by Analog Devices, Inc.
*
*  NODE NUMBERS
*               10.0 V
*               |  GND
*               |  |  VIN
*               |  |  |
.SUBCKT AD581K  1  4  8
*
* BANDGAP REFERENCE
*
I1 4 10 DC 1.213635E-3
R1 10 4 1E3 RMOD
.MODEL RMOD R TC1=15E-6
EN 10 11 41 0 1
G1 4 11 8 4 2.430243E-8
F1 4 11 POLY(2) VS1 VS2  0 6.0756E-5 6.0756E-5 
*
* NOISE VOLTAGE GENERATOR
*
VN1 40 0 DC 2
DN1 40 41 DEN
CN 41 0 50E-12
DN2 41 42 DEN
VN2 0 42 DC 2
*
* INTERNAL OP AMP AND DOMINANT POLE @ 5 Hz
*
G2 4 7 11 6 1E-3
R2 7 4 1E8
C1 7 4 3.1831E-10
D1 7 12 DX
V1 8 12 DC 1.5
*
* SECONDARY POLE @ 1 MHz
*
G3 4 13 7 4 1E-6
R3 13 4 1E6
C2 13 4 1.5915E-13
*
* OUTPUT STAGE
*
ISY 8 4 6.015E-4
FSY 8 4 V1 -1
*
G4 4 14 13 4 20E-6
R4 14 4 50E3
FSC 14 4 VSC 1
Q1 4 14 5 QP
I2 8 5 DC 100E-6
VSC 8 15 DC 0
QSC 15 8 16 QN
RSC 8 16 24.5
Q2 16 5 17 QN
VS1 19 17 DC 0
Q3 4 5 18 QP
VS2 18 19 DC 0
R5 19 2 16.667E3
R6 2 3 8.3333E3
R7 3 6 4.2827E3
R8 6 4 4.05E3
LO 19 1 1E-7
*
.MODEL QN NPN(IS=1E-15 BF=1E3)
.MODEL QP PNP(IS=1E-15 BF=1E3)
.MODEL DX D(IS=1E-15)
.MODEL DEN D(IS=1E-12 RS=4.56436E5 AF=1 KF=2.81234E-17)
.ENDS
**********
*SRC=AD581L;AD581L;Voltage Ref.;Analog Devices;10V
*SYM=ADREF2
* AD581L SPICE Macromodel 11/93, Rev. A
* AAG / PMI
*
* This version of the AD581 voltage reference model simulates the worst case
* parameters of the 'L' grade.  The worst case parameters used correspond
* to those parameters in the data sheet.
*
* Copyright 1993 by Analog Devices, Inc.
*
*  NODE NUMBERS
*               10.0 V
*               |  GND
*               |  |  VIN
*               |  |  | 
.SUBCKT AD581L  1  4  8
*
* BANDGAP REFERENCE
*
I1 4 10 DC 1.214243E-3
R1 10 4 1E3 RMOD
.MODEL RMOD R TC1=5E-6
EN 10 11 41 0 1
G1 4 11 8 4 2.430243E-8
F1 4 11 POLY(2) VS1 VS2  0 6.0756E-5 6.0756E-5 
*
* NOISE VOLTAGE GENERATOR
*
VN1 40 0 DC 2
DN1 40 41 DEN
CN 41 0 50E-12
DN2 41 42 DEN
VN2 0 42 DC 2
*
* INTERNAL OP AMP AND DOMINANT POLE @ 5 Hz
*
G2 4 7 11 6 1E-3
R2 7 4 1E8
C1 7 4 3.1831E-10
D1 7 12 DX
V1 8 12 DC 1.5
*
* SECONDARY POLE @ 1 MHz
*
G3 4 13 7 4 1E-6
R3 13 4 1E6
C2 13 4 1.5915E-13
*
* OUTPUT STAGE
*
ISY 8 4 6.015E-4
FSY 8 4 V1 -1
*
G4 4 14 13 4 20E-6
R4 14 4 50E3
FSC 14 4 VSC 1
Q1 4 14 5 QP
I2 8 5 DC 100E-6
VSC 8 15 DC 0
QSC 15 8 16 QN
RSC 8 16 24.5
Q2 16 5 17 QN
VS1 19 17 DC 0
Q3 4 5 18 QP
VS2 18 19 DC 0
R5 19 2 16.667E3
R6 2 3 8.3333E3
R7 3 6 4.2827E3
R8 6 4 4.05E3
LO 19 1 1E-7
*
.MODEL QN NPN(IS=1E-15 BF=1E3)
.MODEL QP PNP(IS=1E-15 BF=1E3)
.MODEL DX D(IS=1E-15)
.MODEL DEN D(IS=1E-12 RS=4.56436E5 AF=1 KF=2.81234E-17)
.ENDS
**********
*SRC=AD581S;AD581S;Voltage Ref.;Analog Devices;10V
*SYM=ADREF2
* AD581S SPICE Macromodel 11/93, Rev. A
* AAG / PMI
*
* This version of the AD581 voltage reference model simulates the worst case
* parameters of the 'S' grade.  The worst case parameters used correspond
* to those parameters in the data sheet.
*
* Copyright 1993 by Analog Devices, Inc.
*
*  NODE NUMBERS
*               10.0 V
*               |  GND
*               |  |  VIN
*               |  |  |
.SUBCKT AD581S  1  4  8
*
* BANDGAP REFERENCE
*
I1 4 10 DC 1.2112E-3
R1 10 4 1E3 RMOD
.MODEL RMOD R TC1=30E-6
EN 10 11 41 0 1
G1 4 11 8 4 2.430243E-8
F1 4 11 POLY(2) VS1 VS2  0 6.0756E-5 6.0756E-5 
*
* NOISE VOLTAGE GENERATOR
*
VN1 40 0 DC 2
DN1 40 41 DEN
CN 41 0 50E-12
DN2 41 42 DEN
VN2 0 42 DC 2
*
* INTERNAL OP AMP AND DOMINANT POLE @ 5 Hz
*
G2 4 7 11 6 1E-3
R2 7 4 1E8
C1 7 4 3.1831E-10
D1 7 12 DX
V1 8 12 DC 1.5
*
* SECONDARY POLE @ 1 MHz
*
G3 4 13 7 4 1E-6
R3 13 4 1E6
C2 13 4 1.5915E-13
*
* OUTPUT STAGE
*
ISY 8 4 6.015E-4
FSY 8 4 V1 -1
*
G4 4 14 13 4 20E-6
R4 14 4 50E3
FSC 14 4 VSC 1
Q1 4 14 5 QP
I2 8 5 DC 100E-6
VSC 8 15 DC 0
QSC 15 8 16 QN
RSC 8 16 24.5
Q2 16 5 17 QN
VS1 19 17 DC 0
Q3 4 5 18 QP
VS2 18 19 DC 0
R5 19 2 16.667E3
R6 2 3 8.3333E3
R7 3 6 4.2827E3
R8 6 4 4.05E3
LO 19 1 1E-7
*
.MODEL QN NPN(IS=1E-15 BF=1E3)
.MODEL QP PNP(IS=1E-15 BF=1E3)
.MODEL DX D(IS=1E-15)
.MODEL DEN D(IS=1E-12 RS=4.56436E5 AF=1 KF=2.81234E-17)
.ENDS
**********
*SRC=AD581T;AD581T;Voltage Ref.;Analog Devices;10V
*SYM=ADREF2
* AD581T SPICE Macromodel 11/93, Rev. A
* AAG / PMI
*
* This version of the AD581 voltage reference model simulates the worst case
* parameters of the 'T' grade.  The worst case parameters used correspond
* to those parameters in the data sheet.
*
* Copyright 1993 by Analog Devices, Inc.
*
*  NODE NUMBERS
*               10.0 V
*               |  GND
*               |  |  VIN
*               |  |  |
.SUBCKT AD581T  1  4  8
*
* BANDGAP REFERENCE
*
I1 4 10 DC 1.213635E-3
R1 10 4 1E3 RMOD
.MODEL RMOD R TC1=15E-6
EN 10 11 41 0 1
G1 4 11 8 4 2.430243E-8
F1 4 11 POLY(2) VS1 VS2  0 6.0756E-5 6.0756E-5 
*
* NOISE VOLTAGE GENERATOR
*
VN1 40 0 DC 2
DN1 40 41 DEN
CN 41 0 50E-12
DN2 41 42 DEN
VN2 0 42 DC 2
*
* INTERNAL OP AMP AND DOMINANT POLE @ 5 Hz
*
G2 4 7 11 6 1E-3
R2 7 4 1E8
C1 7 4 3.1831E-10
D1 7 12 DX
V1 8 12 DC 1.5
*
* SECONDARY POLE @ 1 MHz
*
G3 4 13 7 4 1E-6
R3 13 4 1E6
C2 13 4 1.5915E-13
*
* OUTPUT STAGE
*
ISY 8 4 6.015E-4
FSY 8 4 V1 -1
*
G4 4 14 13 4 20E-6
R4 14 4 50E3
FSC 14 4 VSC 1
Q1 4 14 5 QP
I2 8 5 DC 100E-6
VSC 8 15 DC 0
QSC 15 8 16 QN
RSC 8 16 24.5
Q2 16 5 17 QN
VS1 19 17 DC 0
Q3 4 5 18 QP
VS2 18 19 DC 0
R5 19 2 16.667E3
R6 2 3 8.3333E3
R7 3 6 4.2827E3
R8 6 4 4.05E3
LO 19 1 1E-7
*
.MODEL QN NPN(IS=1E-15 BF=1E3)
.MODEL QP PNP(IS=1E-15 BF=1E3)
.MODEL DX D(IS=1E-15)
.MODEL DEN D(IS=1E-12 RS=4.56436E5 AF=1 KF=2.81234E-17)
.ENDS
**********
*SRC=AD581U;AD581U;Voltage Ref.;Analog Devices;10V
*SYM=ADREF2
* AD581U SPICE Macromodel 11/93, Rev. A
* AAG / PMI
*
* This version of the AD581 voltage reference model simulates the worst case
* parameters of the 'U' grade.  The worst case parameters used correspond
* to those parameters in the data sheet.
*
* Copyright 1993 by Analog Devices, Inc.
*
*  NODE NUMBERS
*               10.0 V
*               |  GND
*               |  |  VIN
*               |  |  | 
.SUBCKT AD581U  1  4  8
*
* BANDGAP REFERENCE
*
I1 4 10 DC 1.214243E-3
R1 10 4 1E3 RMOD
.MODEL RMOD R TC1=5E-6
EN 10 11 41 0 1
G1 4 11 8 4 2.430243E-8
F1 4 11 POLY(2) VS1 VS2  0 6.0756E-5 6.0756E-5 
*
* NOISE VOLTAGE GENERATOR
*
VN1 40 0 DC 2
DN1 40 41 DEN
CN 41 0 50E-12
DN2 41 42 DEN
VN2 0 42 DC 2
*
* INTERNAL OP AMP AND DOMINANT POLE @ 5 Hz
*
G2 4 7 11 6 1E-3
R2 7 4 1E8
C1 7 4 3.1831E-10
D1 7 12 DX
V1 8 12 DC 1.5
*
* SECONDARY POLE @ 1 MHz
*
G3 4 13 7 4 1E-6
R3 13 4 1E6
C2 13 4 1.5915E-13
*
* OUTPUT STAGE
*
ISY 8 4 6.015E-4
FSY 8 4 V1 -1
*
G4 4 14 13 4 20E-6
R4 14 4 50E3
FSC 14 4 VSC 1
Q1 4 14 5 QP
I2 8 5 DC 100E-6
VSC 8 15 DC 0
QSC 15 8 16 QN
RSC 8 16 24.5
Q2 16 5 17 QN
VS1 19 17 DC 0
Q3 4 5 18 QP
VS2 18 19 DC 0
R5 19 2 16.667E3
R6 2 3 8.3333E3
R7 3 6 4.2827E3
R8 6 4 4.05E3
LO 19 1 1E-7
*
.MODEL QN NPN(IS=1E-15 BF=1E3)
.MODEL QP PNP(IS=1E-15 BF=1E3)
.MODEL DX D(IS=1E-15)
.MODEL DEN D(IS=1E-12 RS=4.56436E5 AF=1 KF=2.81234E-17)
.ENDS
**********
*SRC=AD584;AD584;Voltage Ref.;Analog Devices;10V, 5V, 2.5V
*SYM=AD584
* AD584 SPICE Macromodel 11/93, Rev. A
* AAG / PMI
*
* Copyright 1993 by Analog Devices, Inc.
*
*  NODE NUMBERS
*              10.0 V
*              |  5.0 V
*              |  |  2.5 V
*              |  |  |  GND
*              |  |  |  |  STROBE
*              |  |  |  |  |  VBG
*              |  |  |  |  |  |  CAP
*              |  |  |  |  |  |  |  VIN
*              |  |  |  |  |  |  |  |
.SUBCKT AD584  1  2  3  4  5  6  7  8
*
* BANDGAP REFERENCE
*
I1 4 10 DC 1.21485E-3
R1 10 4 1E3 RMOD
.MODEL RMOD R TC1=30E-6
EN 10 11 41 0 1
G1 4 11 8 4 2.430243E-8
F1 4 11 POLY(2) VS1 VS2  0 2.43024E-5 2.43024E-5 
*
* NOISE VOLTAGE GENERATOR
*
VN1 40 0 DC 2
DN1 40 41 DEN
CN 41 0 50E-12
DN2 41 42 DEN
VN2 0 42 DC 2
*
* INTERNAL OP AMP AND DOMINANT POLE @ 5 Hz
*
G2 4 7 11 6 1E-3
R2 7 4 1E8
C1 7 4 3.1831E-10
D1 7 12 DX
V1 8 12 DC 1.5
*
* SECONDARY POLE @ 1 MHz
*
G3 4 13 7 4 1E-6
R3 13 4 1E6
C2 13 4 1.5915E-13
*
* OUTPUT STAGE
*
ISY 8 4 3.5027E-4
FSY 8 4 V1 -1
*
G4 4 14 13 4 20E-6
R4 14 4 50E3
FSC 14 4 VSC 1
Q1 4 14 5 QP
I2 8 5 DC 100E-6
VSC 8 15 DC 0
QSC 15 8 16 QN
RSC 8 16 24.5
Q2 16 5 17 QN
VS1 19 17 DC 0
Q3 4 5 18 QP
VS2 18 19 DC 0
R5 19 2 16.667E3
R6 2 3 8.3333E3
R7 3 6 4.2827E3
R8 6 4 4.05E3
LO 19 1 1E-7
*
.MODEL QN NPN(IS=1E-15 BF=1E3)
.MODEL QP PNP(IS=1E-15 BF=1E3)
.MODEL DX D(IS=1E-15)
.MODEL DEN D(IS=1E-12 RS=4.56436E5 AF=1 KF=2.81234E-17)
.ENDS
**********
*SRC=AD584J;AD584J;Voltage Ref.;Analog Devices;10V, 5V, 2.5V
*SYM=AD584
* AD584J SPICE Macromodel 11/93, Rev. A
* AAG / PMI
*
* This version of the AD584 voltage reference model simulates the worst case
* parameters of the 'J' grade.  The worst case parameters used correspond
* to those parameters in the data sheet.
*
* Copyright 1993 by Analog Devices, Inc.
*
*  NODE NUMBERS
*              10.0 V
*              |  5.0 V
*              |  |  2.5 V
*              |  |  |  GND
*              |  |  |  |  STROBE
*              |  |  |  |  |  VBG
*              |  |  |  |  |  |  CAP
*              |  |  |  |  |  |  |  VIN
*              |  |  |  |  |  |  |  |
.SUBCKT AD584J 1  2  3  4  5  6  7  8
*
* BANDGAP REFERENCE
*
I1 4 10 DC 1.2112E-3
R1 10 4 1E3 RMOD
.MODEL RMOD R TC1=30E-6
EN 10 11 41 0 1
G1 4 11 8 4 2.430243E-8
F1 4 11 POLY(2) VS1 VS2  0 6.0756E-5 6.0756E-5 
*
* NOISE VOLTAGE GENERATOR
*
VN1 40 0 DC 2
DN1 40 41 DEN
CN 41 0 50E-12
DN2 41 42 DEN
VN2 0 42 DC 2
*
* INTERNAL OP AMP AND DOMINANT POLE @ 5 Hz
*
G2 4 7 11 6 1E-3
R2 7 4 1E8
C1 7 4 3.1831E-10
D1 7 12 DX
V1 8 12 DC 1.5
*
* SECONDARY POLE @ 1 MHz
*
G3 4 13 7 4 1E-6
R3 13 4 1E6
C2 13 4 1.5915E-13
*
* OUTPUT STAGE
*
ISY 8 4 6.015E-4
FSY 8 4 V1 -1
*
G4 4 14 13 4 20E-6
R4 14 4 50E3
FSC 14 4 VSC 1
Q1 4 14 5 QP
I2 8 5 DC 100E-6
VSC 8 15 DC 0
QSC 15 8 16 QN
RSC 8 16 24.5
Q2 16 5 17 QN
VS1 19 17 DC 0
Q3 4 5 18 QP
VS2 18 19 DC 0
R5 19 2 16.667E3
R6 2 3 8.3333E3
R7 3 6 4.2827E3
R8 6 4 4.05E3
LO 19 1 1E-7
*
.MODEL QN NPN(IS=1E-15 BF=1E3)
.MODEL QP PNP(IS=1E-15 BF=1E3)
.MODEL DX D(IS=1E-15)
.MODEL DEN D(IS=1E-12 RS=4.56436E5 AF=1 KF=2.81234E-17)
.ENDS
**********
*SRC=AD584K;AD584K;Voltage Ref.;Analog Devices;10V, 5V, 2.5V
*SYM=AD584
* AD584K SPICE Macromodel 11/93, Rev. A
* AAG / PMI
*
* This version of the AD584 voltage reference model simulates the worst case
* parameters of the 'K' grade.  The worst case parameters used correspond
* to those parameters in the data sheet.
*
* Copyright 1993 by Analog Devices, Inc.
*
*  NODE NUMBERS
*              10.0 V
*              |  5.0 V
*              |  |  2.5 V
*              |  |  |  GND
*              |  |  |  |  STROBE
*              |  |  |  |  |  VBG
*              |  |  |  |  |  |  CAP
*              |  |  |  |  |  |  |  VIN
*              |  |  |  |  |  |  |  |
.SUBCKT AD584K 1  2  3  4  5  6  7  8
*
* BANDGAP REFERENCE
*
I1 4 10 DC 1.213635E-3
R1 10 4 1E3 RMOD
.MODEL RMOD R TC1=15E-6
EN 10 11 41 0 1
G1 4 11 8 4 2.430243E-8
F1 4 11 POLY(2) VS1 VS2  0 6.0756E-5 6.0756E-5 
*
* NOISE VOLTAGE GENERATOR
*
VN1 40 0 DC 2
DN1 40 41 DEN
CN 41 0 50E-12
DN2 41 42 DEN
VN2 0 42 DC 2
*
* INTERNAL OP AMP AND DOMINANT POLE @ 5 Hz
*
G2 4 7 11 6 1E-3
R2 7 4 1E8
C1 7 4 3.1831E-10
D1 7 12 DX
V1 8 12 DC 1.5
*
* SECONDARY POLE @ 1 MHz
*
G3 4 13 7 4 1E-6
R3 13 4 1E6
C2 13 4 1.5915E-13
*
* OUTPUT STAGE
*
ISY 8 4 6.015E-4
FSY 8 4 V1 -1
*
G4 4 14 13 4 20E-6
R4 14 4 50E3
FSC 14 4 VSC 1
Q1 4 14 5 QP
I2 8 5 DC 100E-6
VSC 8 15 DC 0
QSC 15 8 16 QN
RSC 8 16 24.5
Q2 16 5 17 QN
VS1 19 17 DC 0
Q3 4 5 18 QP
VS2 18 19 DC 0
R5 19 2 16.667E3
R6 2 3 8.3333E3
R7 3 6 4.2827E3
R8 6 4 4.05E3
LO 19 1 1E-7
*
.MODEL QN NPN(IS=1E-15 BF=1E3)
.MODEL QP PNP(IS=1E-15 BF=1E3)
.MODEL DX D(IS=1E-15)
.MODEL DEN D(IS=1E-12 RS=4.56436E5 AF=1 KF=2.81234E-17)
.ENDS
**********
*SRC=AD584L;AD584L;Voltage Ref.;Analog Devices;10V, 5V, 2.5V
*SYM=AD584
* AD584L SPICE Macromodel 11/93, Rev. A
* AAG / PMI
*
* This version of the AD584 voltage reference model simulates the worst case
* parameters of the 'L' grade.  The worst case parameters used correspond
* to those parameters in the data sheet.
*
* Copyright 1993 by Analog Devices, Inc.
*
*  NODE NUMBERS
*              10.0 V
*              |  5.0 V
*              |  |  2.5 V
*              |  |  |  GND
*              |  |  |  |  STROBE
*              |  |  |  |  |  VBG
*              |  |  |  |  |  |  CAP
*              |  |  |  |  |  |  |  VIN
*              |  |  |  |  |  |  |  |
.SUBCKT AD584L 1  2  3  4  5  6  7  8
*
* BANDGAP REFERENCE
*
I1 4 10 DC 1.214243E-3
R1 10 4 1E3 RMOD
.MODEL RMOD R TC1=5E-6
EN 10 11 41 0 1
G1 4 11 8 4 2.430243E-8
F1 4 11 POLY(2) VS1 VS2  0 6.0756E-5 6.0756E-5 
*
* NOISE VOLTAGE GENERATOR
*
VN1 40 0 DC 2
DN1 40 41 DEN
CN 41 0 50E-12
DN2 41 42 DEN
VN2 0 42 DC 2
*
* INTERNAL OP AMP AND DOMINANT POLE @ 5 Hz
*
G2 4 7 11 6 1E-3
R2 7 4 1E8
C1 7 4 3.1831E-10
D1 7 12 DX
V1 8 12 DC 1.5
*
* SECONDARY POLE @ 1 MHz
*
G3 4 13 7 4 1E-6
R3 13 4 1E6
C2 13 4 1.5915E-13
*
* OUTPUT STAGE
*
ISY 8 4 6.015E-4
FSY 8 4 V1 -1
*
G4 4 14 13 4 20E-6
R4 14 4 50E3
FSC 14 4 VSC 1
Q1 4 14 5 QP
I2 8 5 DC 100E-6
VSC 8 15 DC 0
QSC 15 8 16 QN
RSC 8 16 24.5
Q2 16 5 17 QN
VS1 19 17 DC 0
Q3 4 5 18 QP
VS2 18 19 DC 0
R5 19 2 16.667E3
R6 2 3 8.3333E3
R7 3 6 4.2827E3
R8 6 4 4.05E3
LO 19 1 1E-7
*
.MODEL QN NPN(IS=1E-15 BF=1E3)
.MODEL QP PNP(IS=1E-15 BF=1E3)
.MODEL DX D(IS=1E-15)
.MODEL DEN D(IS=1E-12 RS=4.56436E5 AF=1 KF=2.81234E-17)
.ENDS
**********
*SRC=AD584S;AD584S;Voltage Ref.;Analog Devices;10V, 5V, 2.5V
*SYM=AD584
* AD584S SPICE Macromodel 11/93, Rev. A
* AAG / PMI
*
* This version of the AD584 voltage reference model simulates the worst case
* parameters of the 'S' grade.  The worst case parameters used correspond
* to those parameters in the data sheet.
*
* Copyright 1993 by Analog Devices, Inc.
*
*  NODE NUMBERS
*              10.0 V
*              |  5.0 V
*              |  |  2.5 V
*              |  |  |  GND
*              |  |  |  |  STROBE
*              |  |  |  |  |  VBG
*              |  |  |  |  |  |  CAP
*              |  |  |  |  |  |  |  VIN
*              |  |  |  |  |  |  |  |
.SUBCKT AD584S 1  2  3  4  5  6  7  8
*
* BANDGAP REFERENCE
*
I1 4 10 DC 1.2112E-3
R1 10 4 1E3 RMOD
.MODEL RMOD R TC1=30E-6
EN 10 11 41 0 1
G1 4 11 8 4 2.430243E-8
F1 4 11 POLY(2) VS1 VS2  0 6.0756E-5 6.0756E-5 
*
* NOISE VOLTAGE GENERATOR
*
VN1 40 0 DC 2
DN1 40 41 DEN
CN 41 0 50E-12
DN2 41 42 DEN
VN2 0 42 DC 2
*
* INTERNAL OP AMP AND DOMINANT POLE @ 5 Hz
*
G2 4 7 11 6 1E-3
R2 7 4 1E8
C1 7 4 3.1831E-10
D1 7 12 DX
V1 8 12 DC 1.5
*
* SECONDARY POLE @ 1 MHz
*
G3 4 13 7 4 1E-6
R3 13 4 1E6
C2 13 4 1.5915E-13
*
* OUTPUT STAGE
*
ISY 8 4 6.015E-4
FSY 8 4 V1 -1
*
G4 4 14 13 4 20E-6
R4 14 4 50E3
FSC 14 4 VSC 1
Q1 4 14 5 QP
I2 8 5 DC 100E-6
VSC 8 15 DC 0
QSC 15 8 16 QN
RSC 8 16 24.5
Q2 16 5 17 QN
VS1 19 17 DC 0
Q3 4 5 18 QP
VS2 18 19 DC 0
R5 19 2 16.667E3
R6 2 3 8.3333E3
R7 3 6 4.2827E3
R8 6 4 4.05E3
LO 19 1 1E-7
*
.MODEL QN NPN(IS=1E-15 BF=1E3)
.MODEL QP PNP(IS=1E-15 BF=1E3)
.MODEL DX D(IS=1E-15)
.MODEL DEN D(IS=1E-12 RS=4.56436E5 AF=1 KF=2.81234E-17)
.ENDS
**********
*SRC=AD584T;AD584T;Voltage Ref.;Analog Devices;10V, 5V, 2.5V
*SYM=AD584
* AD584T SPICE Macromodel 11/93, Rev. A
* AAG / PMI
*
* This version of the AD584 voltage reference model simulates the worst case
* parameters of the 'T' grade.  The worst case parameters used correspond
* to those parameters in the data sheet.
*
* Copyright 1993 by Analog Devices, Inc.
*
*  NODE NUMBERS
*              10.0 V
*              |  5.0 V
*              |  |  2.5 V
*              |  |  |  GND
*              |  |  |  |  STROBE
*              |  |  |  |  |  VBG
*              |  |  |  |  |  |  CAP
*              |  |  |  |  |  |  |  VIN
*              |  |  |  |  |  |  |  |
.SUBCKT AD584T 1  2  3  4  5  6  7  8
*
* BANDGAP REFERENCE
*
I1 4 10 DC 1.213635E-3
R1 10 4 1E3 RMOD
.MODEL RMOD R TC1=15E-6
EN 10 11 41 0 1
G1 4 11 8 4 2.430243E-8
F1 4 11 POLY(2) VS1 VS2  0 6.0756E-5 6.0756E-5 
*
* NOISE VOLTAGE GENERATOR
*
VN1 40 0 DC 2
DN1 40 41 DEN
CN 41 0 50E-12
DN2 41 42 DEN
VN2 0 42 DC 2
*
* INTERNAL OP AMP AND DOMINANT POLE @ 5 Hz
*
G2 4 7 11 6 1E-3
R2 7 4 1E8
C1 7 4 3.1831E-10
D1 7 12 DX
V1 8 12 DC 1.5
*
* SECONDARY POLE @ 1 MHz
*
G3 4 13 7 4 1E-6
R3 13 4 1E6
C2 13 4 1.5915E-13
*
* OUTPUT STAGE
*
ISY 8 4 6.015E-4
FSY 8 4 V1 -1
*
G4 4 14 13 4 20E-6
R4 14 4 50E3
FSC 14 4 VSC 1
Q1 4 14 5 QP
I2 8 5 DC 100E-6
VSC 8 15 DC 0
QSC 15 8 16 QN
RSC 8 16 24.5
Q2 16 5 17 QN
VS1 19 17 DC 0
Q3 4 5 18 QP
VS2 18 19 DC 0
R5 19 2 16.667E3
R6 2 3 8.3333E3
R7 3 6 4.2827E3
R8 6 4 4.05E3
LO 19 1 1E-7
*
.MODEL QN NPN(IS=1E-15 BF=1E3)
.MODEL QP PNP(IS=1E-15 BF=1E3)
.MODEL DX D(IS=1E-15)
.MODEL DEN D(IS=1E-12 RS=4.56436E5 AF=1 KF=2.81234E-17)
.ENDS
**********
*SRC=AD587;AD587;Voltage Ref.;Analog Devices;10V
*SYM=ADREF3
* AD587 SPICE Macromodel 11/93, Rev. A
* AAG / PMI
*
* Copyright 1993 by Analog Devices, Inc.
*
*  NODE NUMBERS
*              VIN
*              |  GND
*              |  |  TRIM
*              |  |  |  VOUT
*              |  |  |  |  NOISE REDUCTION
*              |  |  |  |  |
.SUBCKT AD587  2  4  5  6  8
*
* BURIED ZENER REFERENCE
*
I1 4 50 DC 6.9995E-3
R1 50 4 1E3 RMOD
.MODEL RMOD R TC1=20E-6
EN 10 50 41 0 1
G1 4 10 2 4 7E-8
F1 4 10 POLY(2) VS1 VS2  0 7E-5 7E-5 
R2 10 8 4E3
I2 8 0 DC 0
*
* NOISE VOLTAGE GENERATOR
*
VN1 40 0 DC 2
DN1 40 41 DEN
DN2 41 42 DEN
VN2 0 42 DC 2
*
* INTERNAL OP AMP AND DOMINANT POLE @ 1.5 Hz
*
G2 4 11 8 26 1E-3
R3 11 4 3.1623E8
C1 11 4 3.3553E-10
D1 11 12 DX
V1 2 12 DC 2.2
*
* SECONDARY POLE @ 3 MHz
*
G3 4 13 11 4 1E-6
R4 13 4 1E6
C2 13 4 5.3052E-14
*
* OUTPUT STAGE
*
ISY 2 4 1E-3
FSY 2 4 V1 -1
RSY 2 4 77.778E3
*
G4 4 14 13 4 1E-5
R5 14 4 1E5
FSC1 14 4 VSC1 1
R7 20 21 23
R8 21 22 10
FSC2 14 4 VSC2 1
Q1 4 14 15 QP
I3 2 15 DC 100E-6
Q2 2 15 17 QN
I4 17 4 DC 100E-6
Q3 4 15 18 QP
I5 2 18 DC 100E-6
Q4 2 18 19 QN
VS1 20 19 DC 0
VS2 22 23 DC 0
Q5 25 17 23 QP
RF 22 26 6E3
RT 26 5 140E3
RI 26 4 14E3
LO 22 6 1E-7
*
* SHORT-CIRCUIT CURRENT LIMITING
*
VSC1 2 24 DC 0
QSC1 24 20 21 QN
*
VSC2 2 16 DC 0
QSC2 16 25 4 QN
R9 25 4 10
*
.MODEL QN NPN(IS=1E-15 BF=1E3)
.MODEL QP PNP(IS=1E-15 BF=1E3)
.MODEL DX D(IS=1E-15)
.MODEL DEN D(IS=1E-12 RS=5.77069E5 AF=1 KF=1.87644E-15)
.ENDS
**********
*SRC=AD587J;AD587J;Voltage Ref.;Analog Devices;10V
*SYM=ADREF3
* AD587J SPICE Macromodel 11/93, Rev. A
* AAG / PMI
*
* This version of the AD587 voltage reference model simulates the worst case
* parameters of the 'J' grade.  The worst case parameters used correspond
* to those parameters in the data sheet.
*
* Copyright 1993 by Analog Devices, Inc.
*
*  NODE NUMBERS
*               VIN
*               |  GND
*               |  |  TRIM
*               |  |  |  VOUT
*               |  |  |  |  NOISE REDUCTION
*               |  |  |  |  |
.SUBCKT AD587J  2  4  5  6  8
*
* BURIED ZENER REFERENCE
*
I1 4 50 DC 6.9923E-3
R1 50 4 1E3 RMOD
.MODEL RMOD R TC1=20E-6
EN 10 50 41 0 1
G1 4 10 2 4 7E-8
F1 4 10 POLY(2) VS1 VS2 0 7E-5 7E-5 
R2 10 8 4E3
I2 8 0 DC 0
*
* NOISE VOLTAGE GENERATOR
*
VN1 40 0 DC 2
DN1 40 41 DEN
DN2 41 42 DEN
VN2 0 42 DC 2
*
* INTERNAL OP AMP AND DOMINANT POLE @ 1.5 Hz
*
G2 4 11 8 26 1E-3
R3 11 4 3.1623E8
C1 11 4 3.3553E-10
D1 11 12 DX
V1 2 12 DC 2.2
*
* SECONDARY POLE @ 3 MHz
*
G3 4 13 11 4 1E-6
R4 13 4 1E6
C2 13 4 5.3052E-14
*
* OUTPUT STAGE
*
ISY 2 4 3E-3
FSY 2 4 V1 -1
RSY 2 4 77.778E3
*
G4 4 14 13 4 1E-5
R5 14 4 1E5
FSC1 14 4 VSC1 1
R7 20 21 13.35
R8 21 22 10
FSC2 14 4 VSC2 1
Q1 4 14 15 QP
I3 2 15 DC 100E-6
Q2 2 15 17 QN
I4 17 4 DC 100E-6
Q3 4 15 18 QP
I5 2 18 DC 100E-6
Q4 2 18 19 QN
VS1 20 19 DC 0
VS2 22 23 DC 0
Q5 25 17 23 QP
RF 22 26 6E3
RT 26 5 140E3
RI 26 4 14E3
LO 22 6 1E-7
*
* SHORT-CIRCUIT CURRENT LIMITING
*
VSC1 2 24 DC 0
QSC1 24 20 21 QN
*
VSC2 2 16 DC 0
QSC2 16 25 4 QN
R9 25 4 10
*
.MODEL QN NPN(IS=1E-15 BF=1E3)
.MODEL QP PNP(IS=1E-15 BF=1E3)
.MODEL DX D(IS=1E-15)
.MODEL DEN D(IS=1E-12 RS=5.77069E5 AF=1 KF=1.87644E-15)
.ENDS
**********
*SRC=AD587K;AD587K;Voltage Ref.;Analog Devices;10V
*SYM=ADREF3
* AD587K SPICE Macromodel 11/93, Rev. A
* AAG / PMI
*
* This version of the AD587 voltage reference model simulates the worst case
* parameters of the 'K' grade.  The worst case parameters used correspond
* to those parameters in the data sheet.
*
* Copyright 1993 by Analog Devices, Inc.
*
*  NODE NUMBERS
*               VIN
*               |  GND
*               |  |  TRIM
*               |  |  |  VOUT
*               |  |  |  |  NOISE REDUCTION
*               |  |  |  |  |
.SUBCKT AD587K  2  4  5  6  8
*
* BURIED ZENER REFERENCE
*
I1 4 50 DC 6.99565E-3
R1 50 4 1E3 RMOD
.MODEL RMOD R TC1=10E-6
EN 10 50 41 0 1
G1 4 10 2 4 7E-8
F1 4 10 POLY(2) VS1 VS2  0 7E-5 7E-5 
R2 10 8 4E3
I2 8 0 DC 0
*
* NOISE VOLTAGE GENERATOR
*
VN1 40 0 DC 2
DN1 40 41 DEN
DN2 41 42 DEN
VN2 0 42 DC 2
*
* INTERNAL OP AMP AND DOMINANT POLE @ 1.5 Hz
*
G2 4 11 8 26 1E-3
R3 11 4 3.1623E8
C1 11 4 3.3553E-10
D1 11 12 DX
V1 2 12 DC 2.2
*
* SECONDARY POLE @ 3 MHz
*
G3 4 13 11 4 1E-6
R4 13 4 1E6
C2 13 4 5.3052E-14
*
* OUTPUT STAGE
*
ISY 2 4 3E-3
FSY 2 4 V1 -1
RSY 2 4 77.778E3
*
G4 4 14 13 4 1E-5
R5 14 4 1E5
FSC1 14 4 VSC1 1
R7 20 21 13.35
R8 21 22 10
FSC2 14 4 VSC2 1
Q1 4 14 15 QP
I3 2 15 DC 100E-6
Q2 2 15 17 QN
I4 17 4 DC 100E-6
Q3 4 15 18 QP
I5 2 18 DC 100E-6
Q4 2 18 19 QN
VS1 20 19 DC 0
VS2 22 23 DC 0
Q5 25 17 23 QP
RF 22 26 6E3
RT 26 5 140E3
RI 26 4 14E3
LO 22 6 1E-7
*
* SHORT-CIRCUIT CURRENT LIMITING
*
VSC1 2 24 DC 0
QSC1 24 20 21 QN
*
VSC2 2 16 DC 0
QSC2 16 25 4 QN
R9 25 4 10
*
.MODEL QN NPN(IS=1E-15 BF=1E3)
.MODEL QP PNP(IS=1E-15 BF=1E3)
.MODEL DX D(IS=1E-15)
.MODEL DEN D(IS=1E-12 RS=5.77069E5 AF=1 KF=1.87644E-15)
.ENDS
**********
*SRC=AD587L;AD587L;Voltage Ref.;Analog Devices;10V
*SYM=ADREF3
* AD587L SPICE Macromodel 11/93, Rev. A
* AAG / PMI
*
* This version of the AD587 voltage reference model simulates the worst case
* parameters of the 'L' grade.  The worst case parameters used correspond
* to those parameters in the data sheet.
*
* Copyright 1993 by Analog Devices, Inc.
*
*  NODE NUMBERS
*               VIN
*               |  GND
*               |  |  TRIM
*               |  |  |  VOUT
*               |  |  |  |  NOISE REDUCTION
*               |  |  |  |  |
.SUBCKT AD587L  2  4  5  6  8
*
* BURIED ZENER REFERENCE
*
I1 4 50 DC 6.99565E-3
R1 50 4 1E3 RMOD
.MODEL RMOD R TC1=5E-6
EN 10 50 41 0 1
G1 4 10 2 4 7E-8
F1 4 10 POLY(2) VS1 VS2  0 7E-5 7E-5  
R2 10 8 4E3
I2 8 0 DC 0
*
* NOISE VOLTAGE GENERATOR
*
VN1 40 0 DC 2
DN1 40 41 DEN
DN2 41 42 DEN
VN2 0 42 DC 2
*
* INTERNAL OP AMP AND DOMINANT POLE @ 1.5 Hz
*
G2 4 11 8 26 1E-3
R3 11 4 3.1623E8
C1 11 4 3.3553E-10
D1 11 12 DX
V1 2 12 DC 2.2
*
* SECONDARY POLE @ 3 MHz
*
G3 4 13 11 4 1E-6
R4 13 4 1E6
C2 13 4 5.3052E-14
*
* OUTPUT STAGE
*
ISY 2 4 3E-3
FSY 2 4 V1 -1
RSY 2 4 77.778E3
*
G4 4 14 13 4 1E-5
R5 14 4 1E5
FSC1 14 4 VSC1 1
R7 20 21 13.35
R8 21 22 10
FSC2 14 4 VSC2 1
Q1 4 14 15 QP
I3 2 15 DC 100E-6
Q2 2 15 17 QN
I4 17 4 DC 100E-6
Q3 4 15 18 QP
I5 2 18 DC 100E-6
Q4 2 18 19 QN
VS1 20 19 DC 0
VS2 22 23 DC 0
Q5 25 17 23 QP
RF 22 26 6E3
RT 26 5 140E3
RI 26 4 14E3
LO 22 6 1E-7
*
* SHORT-CIRCUIT CURRENT LIMITING
*
VSC1 2 24 DC 0
QSC1 24 20 21 QN
*
VSC2 2 16 DC 0
QSC2 16 25 4 QN
R9 25 4 10
*
.MODEL QN NPN(IS=1E-15 BF=1E3)
.MODEL QP PNP(IS=1E-15 BF=1E3)
.MODEL DX D(IS=1E-15)
.MODEL DEN D(IS=1E-12 RS=5.77069E5 AF=1 KF=1.87644E-15)
.ENDS
**********
*SRC=AD587S;AD587S;Voltage Ref.;Analog Devices;10V
*SYM=ADREF3
* AD587S SPICE Macromodel 11/93, Rev. A
* AAG / PMI
*
* This version of the AD587 voltage reference model simulates the worst case
* parameters of the 'S' grade.  The worst case parameters used correspond
* to those parameters in the data sheet.
*
* Copyright 1993 by Analog Devices, Inc.
*
*  NODE NUMBERS
*               VIN
*               |  GND
*               |  |  TRIM
*               |  |  |  VOUT
*               |  |  |  |  NOISE REDUCTION
*               |  |  |  |  |
.SUBCKT AD587S  2  4  5  6  8
*
* BURIED ZENER REFERENCE
*
I1 4 50 DC 6.9923E-3
R1 50 4 1E3 RMOD
.MODEL RMOD R TC1=20E-6
EN 10 50 41 0 1
G1 4 10 2 4 7E-8
F1 4 10 POLY(2) VS1 VS2  0 7E-5 7E-5 
R2 10 8 4E3
I2 8 0 DC 0
*
* NOISE VOLTAGE GENERATOR
*
VN1 40 0 DC 2
DN1 40 41 DEN
DN2 41 42 DEN
VN2 0 42 DC 2
*
* INTERNAL OP AMP AND DOMINANT POLE @ 1.5 Hz
*
G2 4 11 8 26 1E-3
R3 11 4 3.1623E8
C1 11 4 3.3553E-10
D1 11 12 DX
V1 2 12 DC 2.2
*
* SECONDARY POLE @ 3 MHz
*
G3 4 13 11 4 1E-6
R4 13 4 1E6
C2 13 4 5.3052E-14
*
* OUTPUT STAGE
*
ISY 2 4 3E-3
FSY 2 4 V1 -1
RSY 2 4 77.778E3
*
G4 4 14 13 4 1E-5
R5 14 4 1E5
FSC1 14 4 VSC1 1
R7 20 21 13.35
R8 21 22 10
FSC2 14 4 VSC2 1
Q1 4 14 15 QP
I3 2 15 DC 100E-6
Q2 2 15 17 QN
I4 17 4 DC 100E-6
Q3 4 15 18 QP
I5 2 18 DC 100E-6
Q4 2 18 19 QN
VS1 20 19 DC 0
VS2 22 23 DC 0
Q5 25 17 23 QP
RF 22 26 6E3
RT 26 5 140E3
RI 26 4 14E3
LO 22 6 1E-7
*
* SHORT-CIRCUIT CURRENT LIMITING
*
VSC1 2 24 DC 0
QSC1 24 20 21 QN
*
VSC2 2 16 DC 0
QSC2 16 25 4 QN
R9 25 4 10
*
.MODEL QN NPN(IS=1E-15 BF=1E3)
.MODEL QP PNP(IS=1E-15 BF=1E3)
.MODEL DX D(IS=1E-15)
.MODEL DEN D(IS=1E-12 RS=5.77069E5 AF=1 KF=1.87644E-15)
.ENDS
**********
*SRC=AD587T;AD587T;Voltage Ref.;Analog Devices;10V
*SYM=ADREF3
* AD587T SPICE Macromodel 11/93, Rev. A
* AAG / PMI
*
* This version of the AD587 voltage reference model simulates the worst case
* parameters of the 'T' grade.  The worst case parameters used correspond
* to those parameters in the data sheet.
*
* Copyright 1993 by Analog Devices, Inc.
*
*  NODE NUMBERS
*               VIN
*               |  GND
*               |  |  TRIM
*               |  |  |  VOUT
*               |  |  |  |  NOISE REDUCTION
*               |  |  |  |  |
.SUBCKT AD587T  2  4  5  6  8
*
* BURIED ZENER REFERENCE
*
I1 4 50 DC 6.99565E-3
R1 50 4 1E3 RMOD
.MODEL RMOD R TC1=10E-6
EN 10 50 41 0 1
G1 4 10 2 4 7E-8
F1 4 10 POLY(2) VS1 VS2  0 7E-5 7E-5 
R2 10 8 4E3
I2 8 0 DC 0
*
* NOISE VOLTAGE GENERATOR
*
VN1 40 0 DC 2
DN1 40 41 DEN
DN2 41 42 DEN
VN2 0 42 DC 2
*
* INTERNAL OP AMP AND DOMINANT POLE @ 1.5 Hz
*
G2 4 11 8 26 1E-3
R3 11 4 3.1623E8
C1 11 4 3.3553E-10
D1 11 12 DX
V1 2 12 DC 2.2
*
* SECONDARY POLE @ 3 MHz
*
G3 4 13 11 4 1E-6
R4 13 4 1E6
C2 13 4 5.3052E-14
*
* OUTPUT STAGE
*
ISY 2 4 3E-3
FSY 2 4 V1 -1
RSY 2 4 77.778E3
*
G4 4 14 13 4 1E-5
R5 14 4 1E5
FSC1 14 4 VSC1 1
R7 20 21 13.35
R8 21 22 10
FSC2 14 4 VSC2 1
Q1 4 14 15 QP
I3 2 15 DC 100E-6
Q2 2 15 17 QN
I4 17 4 DC 100E-6
Q3 4 15 18 QP
I5 2 18 DC 100E-6
Q4 2 18 19 QN
VS1 20 19 DC 0
VS2 22 23 DC 0
Q5 25 17 23 QP
RF 22 26 6E3
RT 26 5 140E3
RI 26 4 14E3
LO 22 6 1E-7
*
* SHORT-CIRCUIT CURRENT LIMITING
*
VSC1 2 24 DC 0
QSC1 24 20 21 QN
*
VSC2 2 16 DC 0
QSC2 16 25 4 QN
R9 25 4 10
*
.MODEL QN NPN(IS=1E-15 BF=1E3)
.MODEL QP PNP(IS=1E-15 BF=1E3)
.MODEL DX D(IS=1E-15)
.MODEL DEN D(IS=1E-12 RS=5.77069E5 AF=1 KF=1.87644E-15)
.ENDS
**********
*SRC=AD587U;AD587U;Voltage Ref.;Analog Devices;10V
*SYM=ADREF3
* AD587U SPICE Macromodel 11/93, Rev. A
* AAG / PMI
*
* This version of the AD587 voltage reference model simulates the worst case
* parameters of the 'U' grade.  The worst case parameters used correspond
* to those parameters in the data sheet.
*
* Copyright 1993 by Analog Devices, Inc.
*
*  NODE NUMBERS
*               VIN
*               |  GND
*               |  |  TRIM
*               |  |  |  VOUT
*               |  |  |  |  NOISE REDUCTION
*               |  |  |  |  |
.SUBCKT AD587U  2  4  5  6  8
*
* BURIED ZENER REFERENCE
*
I1 4 50 DC 6.99565E-3