******
*SYM=AD626
*SRC=AD626B;AD626B;Inst. Amps;Analog Devices;
* AD626B SPICE Macro-model              Rev. A, 11/95
*                                       ARG / ADSC
*
* This version of the AD626 model simulates the worst-case
* parameters of the 'B' grade. The worst-case parameters
* used correspond to those in the data sheet.
*
* Copyright 1995 by Analog Devices
*
* Node assignments
*                non-inverting input
*                |  inverting input
*                |  |  positive supply
*                |  |  |  negative supply
*                |  |  |  |  gain=100
*                |  |  |  |  |  filter
*                |  |  |  |  |  |  ground
*                |  |  |  |  |  |  |  output
*                |  |  |  |  |  |  |  |
.SUBCKT AD626B   1  2  99 50 30 31 90 49
*
* A1 INPUT ATTENUATORS, GAIN, AND OFFSET RESISTORS
*
R1 1 3 200K
R2 2 4 200K
RS1 3 16 1K
RS2 4 18 1K
R3 3 5 41K
R4 4 6 41K
R5 5 6 4.201K RMOD
.MODEL RMOD R TC1=-13.5U
R6 5 0 540
R7 6 0 540
R9 6 7 10K
R11 5 0 10K
C1 16 0 5P
C2 17 0 5P
*
* A1 INPUT STAGE AND POLE AT 1MHZ
*
I1 99 8 7.55U
Q1 11 16 9 QP 1
Q2 12 17 10 QP 1
R21 11 50 13.7934K
R22 12 50 13.7934K
R23 8 9 6.89705K
R24 8 10 6.89705K
C3 11 12 5.769P
EOS 61 17 POLY(1) 33 98 35.61U 1.698
ETC 18 61 POLY(1) 60 0 -49.665M 1
ITC 0 60 49.665U
RTC 60 0 1K RMOD2
.MODEL RMOD2 R TC1=-81.8U
*
* GAIN STAGE AND DOMINANT POLE AT 120HZ
*
EREF 98 0 POLY(2) 99 0 50 0 0 0.5 0.5
G1 98 13 12 11 72.4983U
R25 13 98 13.7934E6
C4 13 98 96.154P
D1 13 99 DX
D2 50 13 DX
*
* COMMON MODE STAGE WITH ZERO AT 1.78KHZ
*
ECM 32 98 POLY(2) 1 98 2 98 0 0.5 0.5
R28 32 33 1E6
R29 33 98 10
CCM 32 33 283P
*
* NEGATIVE ZERO AT 0.6MHZ
*
E1 23 98 13 98 1E6
R26 23 24 1E3
R27 24 98 1E-3
FNZ 23 24 VNZ -1
ENZ 25 98 23 24 1
VNZ 26 98 DC 0
CNZ 25 26 265P
*
* POLE AT 5MHZ
*
G2 98 20 24 98 1E-6
R30 20 98 1E6
C5 20 98 32F
*
* A1 OUTPUT STAGE
*
EIN1 99 27 POLY(1) 20 98 1.5102 1.124
*VOS 101 27 {VOS}
Q216 50 27 28 QP375 3.444
Q218 7 29 99 QP350 9.913
R31 28 29 27K
I2 99 29 4.75U
R8 7 50 10K
R12 7 31 100K
*
* A2 INPUT STAGE
*
I3 99 34 2.516667U
Q3 35 31 37 QP 1
Q4 36 39 38 QP 1
R32 35 50 106.103K
R33 36 50 106.103K
R34 34 37 85.414K
R35 34 38 85.414K
R10 41 0 10K
R13 49 50 10K
R14 41 30 553.35 RMOD3
.MODEL RMOD3 R TC1=-5U
R15 41 49 10K
R17 39 41 95K
*
* A2 1ST GAIN STAGE AND SLEW RATE
*
G3 98 42 36 35 30.159U
R36 42 98 1E6
E2 99 43 POLY(1) 99 98 -0.473 1
E3 44 50 POLY(1) 98 50 -0.473 1
D3 42 43 DX
D4 44 42 DX
*
* A2 2ND GAIN STAGE AND DOMINANT POLE AT 12HZ
*
G4 98 45 42 98 2.5U
R37 45 98 132.629E6
C7 45 98 100P
D5 45 59 DX
D6 55 45 DX
VC1 59 99 5
VC2 50 55 5
*
* NEGATIVE ZERO AT 1MHZ
*
E4 51 98 45 98 1E6
R38 51 52 1E6
R39 52 98 1
FNZ2 51 52 VNZ2 -1
ENZ2 53 98 51 52 1
VNZ2 54 98 0
CNZ2 53 54 159F
*
* A2 OUTPUT STAGE
*
GSY 99 50 99 50 39.4U
EIN2 99 56 POLY(1) 52 98 1.9561 46.605E-3
RIN 46 56 10K
Q316 50 46 47 QP375 1.778
Q310 50 47 48 QP375 5.925
Q318 49 48 57 50 QP350 9.913
I4 99 47 4.75U
I5 99 48 9.5U
VSC 99 57 0.23
FSC 58 99 VSC 1
QSC 46 58 99 QP350 1
RSC 99 58 44
*
* MODELS USED
*
.MODEL QP350 PNP(IS=1.4E-15 BF=70 CJE=.012P CJC=.06P RE=20 RB=350
+RC=200)
.MODEL QP375 PNP(IS=1.4E-15 CJE=.01P CJC=.05P RE=20 RC=400 RB=100)
.MODEL QP PNP(BF=150 VA=100) ; AKO:QP350 
.MODEL DX D(CJO=1F RS=.1)
.ENDS
*********
*SYM=AD626
*SRC=AD626A;AD626A;Inst. Amps;Analog Devices;
* AD626A SPICE Macro-model              Rev. A, 11/95
*                                       ARG / ADSC
*
* This version of the AD626 model simulates the worst-case
* parameters of the 'A' grade. The worst-case parameters
* used correspond to those in the data sheet.
*
* Copyright 1995 by Analog Devices
*
* Node assignments
*                non-inverting input
*                |  inverting input
*                |  |  positive supply
*                |  |  |  negative supply
*                |  |  |  |  gain=100
*                |  |  |  |  |  filter
*                |  |  |  |  |  |  ground
*                |  |  |  |  |  |  |  output
*                |  |  |  |  |  |  |  |
.SUBCKT AD626A   1  2  99 50 30 31 90 49
*
* A1 INPUT ATTENUATORS, GAIN, AND OFFSET RESISTORS
*
R1 1 3 200K
R2 2 4 200K
RS1 3 16 1K
RS2 4 18 1K
R3 3 5 41K
R4 4 6 41K
R5 5 6 4.158K RMOD
.MODEL RMOD R TC1=-3.3U
R6 5 0 540
R7 6 0 540
R9 6 7 10K
R11 5 0 10K
C1 16 0 5P
C2 17 0 5P
*
* A1 INPUT STAGE AND POLE AT 1MHZ
*
I1 99 8 7.55U
Q1 11 16 9 QP 1
Q2 12 17 10 QP 1
R21 11 50 13.7934K
R22 12 50 13.7934K
R23 8 9 6.89705K
R24 8 10 6.89705K
C3 11 12 5.769P
EOS 61 17 POLY(1) 33 98 78.2U 7.585
ETC 18 61 POLY(1) 60 0 -49.665M 1
ITC 0 60 49.665U
RTC 60 0 1K RMOD2
.MODEL RMOD2 R TC1=-81.8U
*
* GAIN STAGE AND DOMINANT POLE AT 120HZ
*
EREF 98 0 POLY(2) 99 0 50 0 0 0.5 0.5
G1 98 13 12 11 72.4983U
R25 13 98 13.7934E6
C4 13 98 96.154P
D1 13 99 DX
D2 50 13 DX
*
* COMMON MODE STAGE WITH ZERO AT 2.5KHZ
*
ECM 32 98 POLY(2) 1 98 2 98 0 0.5 0.5
R28 32 33 1E6
R29 33 98 10
CCM 32 33 63.36P
*
* NEGATIVE ZERO AT 0.6MHZ
*
E1 23 98 13 98 1E6
R26 23 24 1E3
R27 24 98 1E-3
FNZ 23 24 VNZ -1
ENZ 25 98 23 24 1
VNZ 26 98 DC 0
CNZ 25 26 265P
*
* POLE AT 5MHZ
*
G2 98 20 24 98 1E-6
R30 20 98 1E6
C5 20 98 32F
*
* A1 OUTPUT STAGE
*
EIN1 99 27 POLY(1) 20 98 1.5102 1.124
Q216 50 27 28 QP375 3.444
Q218 7 29 99 QP350 9.913
R31 28 29 27K
I2 99 29 4.75U
R8 7 50 10K
R12 7 31 100K
*
* A2 INPUT STAGE
*
I3 99 34 2.516667U
Q3 35 31 37 QP 1
Q4 36 39 38 QP 1
R32 35 50 106.103K
R33 36 50 106.103K
R34 34 37 85.414K
R35 34 38 85.414K
R10 41 0 10K
R13 49 50 10K
R14 41 30 552.13 RMOD3
.MODEL RMOD3 R TC1=-7U
R15 41 49 10K
R17 39 41 95K
*
* A2 1ST GAIN STAGE AND SLEW RATE
*
G3 98 42 36 35 30.159U
R36 42 98 1E6
E2 99 43 POLY(1) 99 98 -0.473 1
E3 44 50 POLY(1) 98 50 -0.473 1
D3 42 43 DX
D4 44 42 DX
*
* A2 2ND GAIN STAGE AND DOMINANT POLE AT 12HZ
*
G4 98 45 42 98 2.5U
R37 45 98 132.629E6
C7 45 98 100P
D5 45 59 DX
D6 55 45 DX
VC1 59 99 5
VC2 50 55 5
*
* NEGATIVE ZERO AT 1MHZ
*
E4 51 98 45 98 1E6
R38 51 52 1E6
R39 52 98 1
FNZ2 51 52 VNZ2 -1
ENZ2 53 98 51 52 1
VNZ2 54 98 0
CNZ2 53 54 159F
*
* A2 OUTPUT STAGE
*
GSY 99 50 99 50 39.4U
EIN2 99 101 POLY(1) 52 98 0 46.605E-3;1.6901 46.605E-3
VOS 101 56 ; {VOS}
RIN 46 56 10K
Q316 50 46 47 QP375 1.778
Q310 50 47 48 QP375 5.925
Q318 49 48 57 50 QP350 9.913
I4 99 47 4.75U
I5 99 48 9.5U
VSC 99 57 0.23
FSC 58 99 VSC 1
QSC 46 58 99 QP350 1
RSC 99 58 44
*
* MODELS USED
*
.MODEL QP350 PNP(IS=1.4E-15 BF=70 CJE=.012P CJC=.06P RE=20 RB=350
+RC=200)
.MODEL QP375 PNP(IS=1.4E-15 CJE=.01P CJC=.05P RE=20 RC=400 RB=100)
.MODEL QP PNP(BF=150 VA=100) ; AKO:QP350 
.MODEL DX D(CJO=1F RS=.1)
.ENDS
*********
*SYM=ad626
*SRC=AD626;AD626;Inst. Amps;Analog Devices;
* AD626 SPICE Macro-model               Rev. A, 11/95
*                                       ARG / ADSC
*
* Copyright 1995 by Analog Devices
*
* Node assignments
*                non-inverting input
*                |  inverting input
*                |  |  positive supply
*                |  |  |  negative supply
*                |  |  |  |  gain=100
*                |  |  |  |  |  filter
*                |  |  |  |  |  |  ground
*                |  |  |  |  |  |  |  output
*                |  |  |  |  |  |  |  |
.SUBCKT AD626    1  2  99 50 30 31 90 49
*
* A1 INPUT ATTENUATORS, GAIN, AND OFFSET RESISTORS
*
R1 1 3 200K
R2 2 4 200K
RS1 3 16 1K
RS2 4 18 1K
R3 3 5 41K
R4 4 6 41K
R5 5 6 4.244K RMOD
.MODEL RMOD R TC1=-13.4U
R6 5 0 540
R7 6 0 540
R9 6 7 10K
R11 5 0 10K
C1 16 0 5P
C2 17 0 5P
*
* A1 INPUT STAGE AND POLE AT 1MHZ
*
I1 99 8 7.55U
Q1 11 16 9 QP 1
Q2 12 17 10 QP 1
R21 11 50 13.7934K
R22 12 50 13.7934K
R23 8 9 6.89705K
R24 8 10 6.89705K
C3 11 12 5.769P
EOS 61 17 POLY(1) 33 98 1.43U 0.537
ETC 18 61 POLY(1) 60 0 -49.665M 1
ITC 0 60 49.665U
RTC 60 0 1K RMOD2
.MODEL RMOD2 R TC1=-81.8U
*
* GAIN STAGE AND DOMINANT POLE AT 120HZ
*
EREF 98 0 POLY(2) 99 0 50 0 0 0.5 0.5
G1 98 13 12 11 72.4983U
R25 13 98 13.7934E6
C4 13 98 96.154P
D1 13 99 DX
D2 50 13 DX
*
* COMMON MODE STAGE WITH ZERO AT 1.78KHZ
*
ECM 32 98 POLY(2) 1 98 2 98 0 0.5 0.5
R28 32 33 1E6
R29 33 98 10
CCM 32 33 503P
*
* NEGATIVE ZERO AT 0.6MHZ
*
E1 23 98 13 98 1E6
R26 23 24 1E3
R27 24 98 1E-3
FNZ 23 24 VNZ -1
ENZ 25 98 23 24 1
VNZ 26 98 DC 0
CNZ 25 26 265P
*
* POLE AT 5MHZ
*
G2 98 20 24 98 1E-6
R30 20 98 1E6
C5 20 98 32F
*
* A1 OUTPUT STAGE
*
EIN1 99 27 POLY(1) 20 98 1.5102 1.124
Q216 50 27 28 QP375 3.444
Q218 7 29 99 QP350 9.913
R31 28 29 27K
I2 99 29 4.75U
R8 7 50 10K
R12 7 31 100K
*
* A2 INPUT STAGE
*
I3 99 34 2.516667U
Q3 35 31 37 QP 1
Q4 36 39 38 QP 1
R32 35 50 106.103K
R33 36 50 106.103K
R34 34 37 85.414K
R35 34 38 85.414K
R10 41 0 10K
R13 49 50 10K
R14 41 30 555.71 RMOD3 
.MODEL RMOD3 R TC1=-4.5U
R15 41 49 10K
R17 39 41 95K
*
* A2 1ST GAIN STAGE AND SLEW RATE
*
G3 98 42 36 35 30.159U
R36 42 98 1E6
E2 99 43 POLY(1) 99 98 -0.473 1
E3 44 50 POLY(1) 98 50 -0.473 1
D3 42 43 DX
D4 44 42 DX
*
* A2 2ND GAIN STAGE AND DOMINANT POLE AT 12HZ
*
G4 98 45 42 98 2.5U
R37 45 98 132.629E6
C7 45 98 100P
D5 45 59 DX
D6 55 45 DX
VC1 59 99 5
VC2 50 55 5
*
* NEGATIVE ZERO AT 1MHZ
*
E4 51 98 45 98 1E6
R38 51 52 1E6
R39 52 98 1
FNZ2 51 52 VNZ2 -1
ENZ2 53 98 51 52 1
VNZ2 54 98 0
CNZ2 53 54 159F
*
* A2 OUTPUT STAGE
*
GSY 99 50 99 50 29.2U
EIN2 99 56 POLY(1) 52 98 1.75608 46.605E-3
RIN 46 56 10K
Q316 50 46 47 QP375 1.778
Q310 50 47 48 QP375 5.925
Q318 49 48 57 50 QP350 9.913
I4 99 47 4.75U
I5 99 48 9.5U
VSC 99 57 0.03
FSC 58 99 VSC 1
QSC 46 58 99 QP350 1
RSC 99 58 48
*
* MODELS USED
*
.MODEL QP350 PNP(IS=1.4E-15 BF=70 CJE=.012P CJC=.06P RE=20 RB=350
+RC=200)
.MODEL QP375 PNP(IS=1.4E-15 CJE=.01P CJC=.05P RE=20 RC=400 RB=100)
.MODEL QP PNP(BF=150 VA=100) ; AKO:QP350 
.MODEL DX D(CJO=1F RS=.1)
.ENDS
*********
*SYM=REF195
*SRC=REF191;REF191;Voltage Ref.;Analog Devices;
* REF191 SPICE MACROMODEL                   12/95, Rev. A
*                                            (AAG /ADSC)
*
* Copyright 1995 by Analog Devices, Inc.
*
*  NODE NUMBERS
*               VIN
*               |  SHUTDOWN
*               |  |  GND
*               |  |  |  VOUT
*               |  |  |  |
.SUBCKT REF191  2  3  4  6
*
* 1.23V REFERENCE
*
I1 4 10 DC 5.8088E-8
R1 10 4 21.18E6 RMOD
.MODEL RMOD 3 TC1=1.04E-6
GLR 4 10 2 4 1.1615E-13
GLDR 4 10 22 6 2.785E-10
C1 4 10 4.7214E-13
*
* OPEN-LOOP GAIN
*
G2 4 11 10 21 1E-4
R2 4 11 1E6
*
* 3 POLES AT 2 MHZ
*
G3 4 12 11 4 1E-6
R3 4 12 1E6
C2 4 12 0.0796E-12
*
G4 4 13 12 4 1E-6
R4 4 13 1E6
C3 4 13 0.0796E-12
*
GX5 4 17 13 4 1E-6
RX5 4 17 1E6
CX3 4 17 0.0796E-12
*
* SHORT CIRCUIT LIMIT
*
G5 14 4 17 4 1E-4
R10 14 4 1E4
D1 4 14 DX
G6 15 4 4 14 100E-6
GSC 4 15 22 6 54E-6
D2 16 15 DX
V1 4 16 DC 0
D3 15 4 DX
F1 4 15 V3 100
*
* SHUTDOWN CIRCUIT
*
R12 2 3 10E6
Q2 2 3 30 QN
V2 30 31 DC 0
R11 31 4 1.97E5
F3 4 32 POLY(1) V2 5E-6 -1000
D4 32 33 DX
V3 33 4 DC 0
D5 4 32 DX
*
* OUTPUT STAGE
*
ISY 2 4 DC 14.67E-6
F2 20 4 V1 1
R5 2 20 200E3
Q1 22 20 2 QP 80
R6 6 21 56.528E3
R7 21 4 85E3
RDO 22 6 27
*
.MODEL QP PNP(IS=1E-15 BF=10000)
.MODEL QN NPN(BF=100000)
.MODEL DX D(IS=1E-15)
.ENDS
***********
*SYM=REF195
*SRC=REF191E;REF191E;Voltage Ref.;Analog Devices;
* REF191E SPICE MACROMODEL                 12/95, Rev. A
*                                            (AAG /ADSC)
*
* This version of the REF191 model simulates the worst-case
* parameters of the 'E' grade.  The worst-case parameters
* used correspond to those in the data sheet at room temperature.
*
* Copyright 1995 by Analog Devices, Inc.
*
*  NODE NUMBERS
*                VIN
*                |  SHUTDOWN
*                |  |  GND
*                |  |  |  VOUT
*                |  |  |  |
.SUBCKT REF191E  2  3  4  6
*
* 1.23V REFERENCE
*
I1 4 10 DC 5.8031E-8
R1 10 4 21.18E6 RMOD
.MODEL RMOD R TC1=4.0358E-6
GLR 4 10 2 4 2.323E-13
GLDR 4 10 22 6 2.54E-10
C1 4 10 4.7214E-13
*
* OPEN-LOOP GAIN
*
G2 4 11 10 21 1E-4
R2 4 11 1E6
*
* 3 POLES AT 2 MHZ
*
G3 4 12 11 4 1E-6
R3 4 12 1E6
C2 4 12 0.0796E-12
*
G4 4 13 12 4 1E-6
R4 4 13 1E6
C3 4 13 0.0796E-12
*
GX5 4 17 13 4 1E-6
RX5 4 17 1E6
CX3 4 17 0.0796E-12
*
* SHORT CIRCUIT LIMIT
*
G5 14 4 17 4 1E-4
R10 14 4 1E4
D1 4 14 DX
G6 15 4 4 14 100E-6
GSC 4 15 22 6 51E-6
D2 16 15 DX
V1 4 16 DC 0
D3 15 4 DX
F1 4 15 V3 100
*
* SHUTDOWN CIRCUIT
*
R12 2 3 10E6
Q2 2 3 30 QN
V2 30 31 DC 0
R11 31 4 1.97E5
F3 4 32 POLY(1) V2 5E-6 -1000
D4 32 33 DX
V3 33 4 DC 0
D5 4 32 DX
*
* OUTPUT STAGE
*
ISY 2 4 DC 14.67E-6
F2 20 4 V1 1
R5 2 20 200E3
Q1 22 20 2 QP 80
R6 6 21 56.528E3
R7 21 4 85E3
RDO 22 6 27
*
.MODEL QP PNP(IS=1E-15 BF=10000)
.MODEL QN NPN(BF=100000)
.MODEL DX D(IS=1E-15)
.ENDS
*************
*SYM=REF195
*SRC=REF191F;REF191F;Voltage Ref.;Analog Devices;
* REF191F SPICE MACROMODEL                 12/95, Rev. A
*                                            (AAG /ADSC)
*
* This version of the REF191 model simulates the worst-case
* parameters of the 'F' grade.  The worst-case parameters
* used correspond to those in the data sheet at room temperature.
*
* Copyright 1995 by Analog Devices, Inc.
*
*  NODE NUMBERS
*                VIN
*                |  SHUTDOWN
*                |  |  GND
*                |  |  |  VOUT
*                |  |  |  |
.SUBCKT REF191F  2  3  4  6
*
* 1.23V REFERENCE
*
I1 4 10 DC 5.7946E-8
R1 10 4 21.18E6  RMOD
.MODEL RMOD R TC1=8.9166E-6
GLR 4 10 2 4 4.6287E-13
GLDR 4 10 22 6 4.376E-10
C1 4 10 4.7214E-13
*
* OPEN-LOOP GAIN
*
G2 4 11 10 21 1E-4
R2 4 11 1E6
*
* 3 POLES AT 2 MHZ
*
G3 4 12 11 4 1E-6
R3 4 12 1E6
C2 4 12 0.0796E-12
*
G4 4 13 12 4 1E-6
R4 4 13 1E6
C3 4 13 0.0796E-12
*
GX5 4 17 13 4 1E-6
RX5 4 17 1E6
CX3 4 17 0.0796E-12
*
* SHORT CIRCUIT LIMIT
*
G5 14 4 17 4 1E-4
R10 14 4 1E4
D1 4 14 DX
G6 15 4 4 14 100E-6
GSC 4 15 22 6 51E-6
D2 16 15 DX
V1 4 16 DC 0
D3 15 4 DX
F1 4 15 V3 100
*
* SHUTDOWN CIRCUIT
*
R12 2 3 10E6
Q2 2 3 30 QN
V2 30 31 DC 0
R11 31 4 1.97E5
F3 4 32 POLY(1) V2 5E-6 -1000
D4 32 33 DX
V3 33 4 DC 0
D5 4 32 DX
*
* OUTPUT STAGE
*
ISY 2 4 DC 14.67E-6
F2 20 4 V1 1
R5 2 20 200E3
Q1 22 20 2 QP 80
R6 6 21 56.528E3
R7 21 4 85E3
RDO 22 6 27
*
.MODEL QP PNP(IS=1E-15 BF=10000)
.MODEL QN NPN(BF=100000)
.MODEL DX D(IS=1E-15)
.ENDS
**********
*SYM=REF195
*SRC=REF191G;REF191G;Voltage Ref.;Analog Devices;10V
* REF191G SPICE MACROMODEL                 12/95, Rev. A
*                                            (AAG /ADSC)
*
* This version of the REF191 model simulates the worst-case
* parameters of the 'G' grade.  The worst-case parameters
* used correspond to those in the data sheet at room temperature.
*
* Copyright 1995 by Analog Devices, Inc.
*
*  NODE NUMBERS
*                VIN
*                |  SHUTDOWN
*                |  |  GND
*                |  |  |  VOUT
*                |  |  |  |
.SUBCKT REF191G  2  3  4  6
*
* 1.23V REFERENCE
*
I1 4 10 DC 5.7804E-8
R1 10 4 21.18E6  RMOD
.MODEL RMOD R TC1=2.3979E-5
GLR 4 10 2 4 4.6287E-13
GLDR 4 10 22 6 9.64E-10
C1 4 10 4.7214E-13
*
* OPEN-LOOP GAIN
*
G2 4 11 10 21 1E-4
R2 4 11 1E6
*
* 3 POLES AT 2 MHZ
*
G3 4 12 11 4 1E-6
R3 4 12 1E6
C2 4 12 0.0796E-12
*
G4 4 13 12 4 1E-6
R4 4 13 1E6
C3 4 13 0.0796E-12
*
GX5 4 17 13 4 1E-6
RX5 4 17 1E6
CX3 4 17 0.0796E-12
*
* SHORT CIRCUIT LIMIT
*
G5 14 4 17 4 1E-4
R10 14 4 1E4
D1 4 14 DX
G6 15 4 4 14 100E-6
GSC 4 15 22 6 51E-6
D2 16 15 DX
V1 4 16 DC 0
D3 15 4 DX
F1 4 15 V3 100
*
* SHUTDOWN CIRCUIT
*
R12 2 3 10E6
Q2 2 3 30 QN
V2 30 31 DC 0
R11 31 4 1.97E5
F3 4 32 POLY(1) V2 5E-6 -1000
D4 32 33 DX
V3 33 4 DC 0
D5 4 32 DX
*
* OUTPUT STAGE
*
ISY 2 4 DC 14.67E-6
F2 20 4 V1 1
R5 2 20 200E3
Q1 22 20 2 QP 80
R6 6 21 56.528E3
R7 21 4 85E3
RDO 22 6 27
*
.MODEL QP PNP(IS=1E-15 BF=10000)
.MODEL QN NPN(BF=100000)
.MODEL DX D(IS=1E-15)
.ENDS
**********
*SYM=REF195
*SRC=REF192;REF192;Voltage Ref.;Analog Devices;
* REF192 SPICE MACROMODEL                  12/95, Rev. A
*                                            (AAG /ADSC)
*
* Copyright 1995 by Analog Devices, Inc.
*
*  NODE NUMBERS
*               VIN
*               |  SHUTDOWN
*               |  |  GND
*               |  |  |  VOUT
*               |  |  |  |
.SUBCKT REF192  2  3  4  6
*
* 1.23V REFERENCE
*
I1 4 10 DC 5.8088E-8
R1 10 4 21.18E6 RMOD
.MODEL RMOD R TC1=1.03776E-6
GLR 4 10 2 4 1.1615E-13
GLDR 4 10 22 6 2.643E-10
C1 4 10 4.7214E-13
*
* OPEN-LOOP GAIN
*
G2 4 11 10 21 1E-4
R2 4 11 1E6
*
* 3 POLES AT 2 MHZ
*
G3 4 12 11 4 1E-6
R3 4 12 1E6
C2 4 12 0.0796E-12
*
G4 4 13 12 4 1E-6
R4 4 13 1E6
C3 4 13 0.0796E-12
*
GX5 4 17 13 4 1E-6
RX5 4 17 1E6
CX3 4 17 0.0796E-12
*
* SHORT CIRCUIT LIMIT
*
G5 14 4 17 4 1E-4
R10 14 4 1E4
D1 4 14 DX
G6 15 4 4 14 100E-6
GSC 4 15 22 6 51E-6
D2 16 15 DX
V1 4 16 DC 0
D3 15 4 DX
F1 4 15 V3 100
*
* SHUTDOWN CIRCUIT
*
R12 2 3 10E6
Q2 2 3 30 QN
V2 30 31 DC 0
R11 31 4 1.97E5
F3 4 32 POLY(1) V2 5E-6 -1000
D4 32 33 DX
V3 33 4 DC 0
D5 4 32 DX
*
* OUTPUT STAGE
*
ISY 2 4 DC 14.67E-6
F2 20 4 V1 1
R5 2 20 200E3
Q1 22 20 2 QP 80
R6 6 21 87.765E3
R7 21 4 85E3
RDO 22 6 27
*
.MODEL QP PNP(IS=1E-15 BF=10000)
.MODEL QN NPN(BF=100000)
.MODEL DX D(IS=1E-15)
.ENDS
***********
*SYM=REF195
*SRC=REF192E;REF192E;Voltage Ref.;Analog Devices;
* REF192E SPICE MACROMODEL                 12/95, Rev. A
*                                            (AAG /ADSC)
*
* Copyright 1995 by Analog Devices, Inc.
*
* This version of the REF192 model simulates the worst-case
* parameters of the 'E' grade.  The worst-case parameters
* used correspond to those in the data sheet at room temperature
*
*  NODE NUMBERS
*                VIN
*                |  SHUTDOWN
*                |  |  GND
*                |  |  |  VOUT
*                |  |  |  |
.SUBCKT REF192E  2  3  4  6
*
* 1.23V REFERENCE
*
I1 4 10 DC 5.80413E-8
R1 10 4 21.18E6 RMOD
.MODEL RMOD R TC1=3.953E-6
GLR 4 10 2 4 2.3215E-13
GLDR 4 10 22 6 2.532E-10
C1 4 10 4.7214E-13
*
* OPEN-LOOP GAIN
*
G2 4 11 10 21 1E-4
R2 4 11 1E6
*
* 3 POLES AT 2 MHZ
*
G3 4 12 11 4 1E-6
R3 4 12 1E6
C2 4 12 0.0796E-12
*
G4 4 13 12 4 1E-6
R4 4 13 1E6
C3 4 13 0.0796E-12
*
GX5 4 17 13 4 1E-6
RX5 4 17 1E6
CX3 4 17 0.0796E-12
*
* SHORT CIRCUIT LIMIT
*
G5 14 4 17 4 1E-4
R10 14 4 1E4
D1 4 14 DX
G6 15 4 4 14 100E-6
GSC 4 15 22 6 51E-6
D2 16 15 DX
V1 4 16 DC 0
D3 15 4 DX
F1 4 15 V3 100
*
* SHUTDOWN CIRCUIT
*
R12 2 3 10E6
Q2 2 3 30 QN
V2 30 31 DC 0
R11 31 4 1.97E5
F3 4 32 POLY(1) V2 5E-6 -1000
D4 32 33 DX
V3 33 4 DC 0
D5 4 32 DX
*
* OUTPUT STAGE
*
ISY 2 4 DC 14.67E-6
F2 20 4 V1 1
R5 2 20 200E3
Q1 22 20 2 QP 80
R6 6 21 87.765E3
R7 21 4 85E3
RDO 22 6 27
*
.MODEL QP PNP(IS=1E-15 BF=10000)
.MODEL QN NPN(BF=100000)
.MODEL DX D(IS=1E-15)
.ENDS
***********
*SYM=REF195
*SRC=REF192F;REF192F;Voltage Ref.;Analog Devices;
* REF192F SPICE MACROMODEL                 12/95, Rev. A
*                                            (AAG /ADSC)
*
* Copyright 1995 by Analog Devices, Inc.
*
* This version of the REF192 model simulates the worst-case
* parameters of the 'F' grade.  The worst-case parameters
* used correspond to those in the data sheet at room temperature
*
*  NODE NUMBERS
*                VIN
*                |  SHUTDOWN
*                |  |  GND
*                |  |  |  VOUT
*                |  |  |  |
.SUBCKT REF192F  2  3  4  6
*
* 1.23V REFERENCE
*
I1 4 10 DC 5.79709E-8
R1 10 4 21.18E6 RMOD
.MODEL RMOD R TC1=8.909E-6
GLR 4 10 2 4 4.6384E-13
GLDR 4 10 22 6 2.405E-10
C1 4 10 4.7214E-13
*
* OPEN-LOOP GAIN
*
G2 4 11 10 21 1E-4
R2 4 11 1E6
*
* 3 POLES AT 2 MHZ
*
G3 4 12 11 4 1E-6
R3 4 12 1E6
C2 4 12 0.0796E-12
*
G4 4 13 12 4 1E-6
R4 4 13 1E6
C3 4 13 0.0796E-12
*
GX5 4 17 13 4 1E-6
RX5 4 17 1E6
CX3 4 17 0.0796E-12
*
* SHORT CIRCUIT LIMIT
*
G5 14 4 17 4 1E-4
R10 14 4 1E4
D1 4 14 DX
G6 15 4 4 14 100E-6
GSC 4 15 22 6 51E-6
D2 16 15 DX
V1 4 16 DC 0
D3 15 4 DX
F1 4 15 V3 100
*
* SHUTDOWN CIRCUIT
*
R12 2 3 10E6
Q2 2 3 30 QN
V2 30 31 DC 0
R11 31 4 1.97E5
F3 4 32 POLY(1) V2 5E-6 -1000
D4 32 33 DX
V3 33 4 DC 0
D5 4 32 DX
*
* OUTPUT STAGE
*
ISY 2 4 DC 14.67E-6
F2 20 4 V1 1
R5 2 20 200E3
Q1 22 20 2 QP 80
R6 6 21 87.765E3
R7 21 4 85E3
RDO 22 6 27
*
.MODEL QP PNP(IS=1E-15 BF=10000)
.MODEL QN NPN(BF=100000)
.MODEL DX D(IS=1E-15)
.ENDS
************
*SYM=REF195
*SRC=REF192G;REF192G;Voltage Ref.;Analog Devices;
* REF192G SPICE MACROMODEL                 12/95, Rev. A
*                                            (AAG /ADSC)
*
* Copyright 1995 by Analog Devices, Inc.
*
* This version of the REF192 model simulates the worst-case
* parameters of the 'G' grade.  The worst-case parameters
* used correspond to those in the data sheet at room temperature
*
*  NODE NUMBERS
*                VIN
*                |  SHUTDOWN
*                |  |  GND
*                |  |  |  VOUT
*                |  |  |  |
.SUBCKT REF192G  2  3  4  6
*
* 1.23V REFERENCE
*
I1 4 10 DC 5.785474E-8
R1 10 4 21.18E6 RMOD
.MODEL RMOD R TC1=2.3953E-5
GLR 4 10 2 4 4.62677E-13
GLDR 4 10 22 6 2.405E-10
C1 4 10 4.7214E-13
*
* OPEN-LOOP GAIN
*
G2 4 11 10 21 1E-4
R2 4 11 1E6
*
* 3 POLES AT 2 MHZ
*
G3 4 12 11 4 1E-6
R3 4 12 1E6
C2 4 12 0.0796E-12
*
G4 4 13 12 4 1E-6
R4 4 13 1E6
C3 4 13 0.0796E-12
*
GX5 4 17 13 4 1E-6
RX5 4 17 1E6
CX3 4 17 0.0796E-12
*
* SHORT CIRCUIT LIMIT
*
G5 14 4 17 4 1E-4
R10 14 4 1E4
D1 4 14 DX
G6 15 4 4 14 100E-6
GSC 4 15 22 6 51E-6
D2 16 15 DX
V1 4 16 DC 0
D3 15 4 DX
F1 4 15 V3 100
*
* SHUTDOWN CIRCUIT
*
R12 2 3 10E6
Q2 2 3 30 QN
V2 30 31 DC 0
R11 31 4 1.97E5
F3 4 32 POLY(1) V2 5E-6 -1000
D4 32 33 DX
V3 33 4 DC 0
D5 4 32 DX
*
* OUTPUT STAGE
*
ISY 2 4 DC 14.67E-6
F2 20 4 V1 1
R5 2 20 200E3
Q1 22 20 2 QP 80
R6 6 21 87.765E3
R7 21 4 85E3
RDO 22 6 27
*
.MODEL QP PNP(IS=1E-15 BF=10000)
.MODEL QN NPN(BF=100000)
.MODEL DX D(IS=1E-15)
.ENDS
***********
*SYM=REF195
*SRC=REF195;REF195;Voltage Ref.;Analog Devices;5V
* REF195 SPICE MACROMODEL                  12/95, Rev. B
*                                             (AAG/ADSC)
*
* Revision history:
*    R1 was changed to model voltage reference output noise
*    I1 was changed commensurate with R1
*    CL1 was changed commensurate with R1
*    GLDR was adjusted for correct load current transient response
*    R8 was adjusted for correct dropout voltage at 10 mA and at 30 mA
*    TC(R1) was adjusted for correct output voltage tempco
*    V2 and R11 were adjusted for correct shutdown mode supply current
*
* Copyright 1995 by Analog Devices, Inc.
*
*  NODE NUMBERS
*               VIN
*               |  SHUTDOWN
*               |  |  GND
*               |  |  |  VOUT
*               |  |  |  |
.SUBCKT REF195  2  3  4  6
*
* 1.23V REFERENCE
*
I1 4 10 DC 5.8095E-8
R1 10 4 21.18E6 RMOD
.MODEL RMOD R TC1=1.43E-6
GLR 4 10 2 4 1.1615E-13
GLDR 4 10 22 6 2.686E-10
C1 4 10 4.7214E-13
*
* OPEN-LOOP GAIN
*
G2 4 11 10 21 1E-4
R2 4 11 1E6
*
* 3 POLES AT 2 MHZ
*
G3 4 12 11 4 1E-6
R3 4 12 1E6
C2 4 12 0.0796E-12
*
G4 4 13 12 4 1E-6
R4 4 13 1E6
C3 4 13 0.0796E-12
*
GX5 4 17 13 4 1E-6
RX5 4 17 1E6
CX3 4 17 0.0796E-12
*
* SHORT CIRCUIT LIMIT
*
G5 14 4 17 4 1E-4
R10 14 4 1E4
D1 4 14 DX
G6 15 4 4 14 100E-6
GSC 4 15 22 6 51E-6
D2 16 15 DX
V1 4 16 DC 0
D3 15 4 DX
F1 4 15 V3 100
*
* SHUTDOWN CIRCUIT
*
R12 2 3 10E6
Q2 2 3 30 QN
V2 30 31 DC 0
R11 31 4 1.37E6
F3 4 32 POLY(1) V2 5E-6 -1000
D4 32 33 DX
V3 33 4 DC 0
D5 4 32 DX
*
* OUTPUT STAGE
*
ISY 2 4 DC 9.49E-6
F2 20 4 V1 1
R5 2 20 200E3
Q1 22 20 2 QP 80
R6 6 21 260.5E3
R7 21 4 85E3
RDO 22 6 27
*
.MODEL QP PNP(IS=1E-15 BF=10000)
.MODEL QN NPN(BF=100000)
.MODEL DX D(IS=1E-15)
.ENDS
**********
*SYM=REF195
*SRC=REF195E;REF195E;Voltage Ref.;Analog Devices;5V
* REF195E SPICE MACROMODEL                   12/95, Rev. B
*                                               (AAG/ADSC)
*
* Revision history:
*    R1 was changed to model voltage reference output noise
*    I1 was changed commensurate with R1
*    CL1 was changed commensurate with R1
*    GLDR was adjusted for correct load current transient response
*    R8 was adjusted for correct dropout voltage at 10 mA and at 30 mA
*    TC(R1) was adjusted for correct output voltage tempco
*    V2 and R11 were adjusted for correct shutdown mode supply current
*
* Copyright 1995 by Analog Devices, Inc.
*
* This version of the REF195 model simulates the worst-case
* parameters of the 'E' grade.  The worst-case parameters
* used correspond to those in the data sheet at room temperature
*
*  NODE NUMBERS
*                VIN
*                |  SHUTDOWN
*                |  |  GND
*                |  |  |  VOUT
*                |  |  |  |
.SUBCKT REF195E  2  3  4  6
*
* 1.23V REFERENCE
*
I1 4 10 DC 5.806675E-8
R1 10 4 21.18E6 RMOD
.MODEL RMOD R TC1=4.4215E-6
GLR 4 10 2 4 2.323E-13
GLDR 4 10 22 6 2.807E-10
C1 4 10 4.7214E-13
*
* OPEN-LOOP GAIN
*
G2 4 11 10 21 1E-4
R2 4 11 1E6
*
* 3 POLES AT 2 MHz
*
G3 4 12 11 4 1E-6
R3 4 12 1E6
C2 4 12 0.0796E-12
*
G4 4 13 12 4 1E-6
R4 4 13 1E6
C3 4 13 0.0796E-12
*
GX5 4 17 13 4 1E-6
RX5 4 17 1E6
CX3 4 17 0.0796E-12
*
* SHORT CIRCUIT LIMIT
*
G5 14 4 17 4 1E-4
R10 14 4 1E4
D1 4 14 DX
G6 15 4 4 14 100E-6
GSC 4 15 22 6 54E-6
D2 16 15 DX
V1 4 16 DC 0
D3 15 4 DX
F1 4 15 V3 100
*
* SHUTDOWN CIRCUIT
*
R12 2 3 10E6
Q2 2 3 30 QN
V2 30 31 DC 0
R11 31 4 3.33E5
F3 4 32 POLY(1) V2 5E-6 -1000
D4 32 33 DX
V3 33 4 DC 0
D5 4 32 DX
*
* OUTPUT STAGE
*
ISY 2 4 DC 14.49E-6
F2 20 4 V1 1
R5 2 20 200E3
Q1 22 20 2 QP 80
R6 6 21 260.5E3
R7 21 4 85E3
RDO 22 6 25.5
*
.MODEL QP PNP(IS=1E-15 BF=10000)
.MODEL QN NPN(BF=100000)
.MODEL DX D(IS=1E-15)
.ENDS
************
*SYM=REF195
*SRC=REF195F;REF195F;Voltage Ref.;Analog Devices;5V
* REF195F SPICE MACROMODEL                12/95, Rev. B
*                                            (AAG/ADSC)
*
* Revision history:
*    R1 was changed to model voltage reference output noise
*    I1 was changed commensurate with R1
*    CL1 was changed commensurate with R1
*    GLDR was adjusted for correct load current transient response
*    R8 was adjusted for correct dropout voltage at 10 mA and at 30 mA
*    TC(R1) was adjusted for correct output voltage tempco
*    V2 and R11 were adjusted for correct shutdown mode supply current
*
* Copyright 1995 by Analog Devices, Inc.
*
* This version of the REF195 model simulates the worst-case
* parameters of the 'F' grade.  The worst-case parameters
* used correspond to those in the data sheet at room temperature
*
*  NODE NUMBERS
*                VIN
*                |  SHUTDOWN
*                |  |  GND
*                |  |  |  VOUT
*                |  |  |  |
.SUBCKT REF195F  2  3  4  6
*
* 1.23V REFERENCE
*
I1 4 10 DC 5.8035E-8
R1 10 4 21.18E6 RMOD
.MODEL RMOD R TC1=1.952E-5
GLR 4 10 2 4 4.646E-13
GLDR 4 10 22 6 2.731E-10
C1 4 10 4.7214E-13
*
* OPEN-LOOP GAIN
*
G2 4 11 10 21 1E-4
R2 4 11 1E6
*
* 3 POLES AT 2 MHz
*
G3 4 12 11 4 1E-6
R3 4 12 1E6
C2 4 12 0.0796E-12
*
G4 4 13 12 4 1E-6
R4 4 13 1E6
C3 4 13 0.0796E-12
*
GX5 4 17 13 4 1E-6
RX5 4 17 1E6
CX3 4 17 0.0796E-12
*
* SHORT CIRCUIT LIMIT
*
G5 14 4 17 4 1E-4
R10 14 4 1E4
D1 4 14 DX
G6 15 4 4 14 100E-6
GSC 4 15 22 6 54E-6
D2 16 15 DX
V1 4 16 DC 0
D3 15 4 DX
F1 4 15 V3 100
*
* SHUTDOWN CIRCUIT
*
R12 2 3 10E6
Q2 2 3 30 QN
V2 30 31 DC 0
R11 31 4 3.33E5
F3 4 32 POLY(1) V2 5E-6 -1000
D4 32 33 DX
V3 33 4 DC 0
D5 4 32 DX
*
* OUTPUT STAGE
*
ISY 2 4 DC 14.49E-6
F2 20 4 V1 1
R5 2 20 200E3
Q1 22 20 2 QP 80
R6 6 21 260.5E3
R7 21 4 85E3
RDO 22 6 25.5
*
.MODEL QP PNP(IS=1E-15 BF=10000)
.MODEL QN NPN(BF=100000)
.MODEL DX D(IS=1E-15)
.ENDS
***************
*SYM=REF195
*SRC=REF195G;REF195G;Voltage Ref.;Analog Devices;5V
* REF195G SPICE MACROMODEL                 12/95, Rev. B
*                                            (AAG /ADSC)
*
* Revision history:
*    R1 was changed to model voltage reference output noise
*    I1 was changed commensurate with R1
*    CL1 was changed commensurate with R1
*    GLDR was adjusted for correct load current transient response
*    R8 was adjusted for correct dropout voltage at 10 mA and at 30 mA
*    TC(R1) was adjusted for correct output voltage tempco
*    V2 and R11 were adjusted for correct shutdown mode supply current
*
* Copyright 1995 by Analog Devices, Inc.
*
* This version of the REF195 model simulates the worst-case
* parameters of the 'G' grade.  The worst-case parameters
* used correspond to those in the data sheet at room temperature
*
*  NODE NUMBERS
*                VIN
*                |  SHUTDOWN
*                |  |  GND
*                |  |  |  VOUT
*                |  |  |  |
.SUBCKT REF195G  2  3  4  6
*
* 1.23V REFERENCE
*
I1 4 10 DC 5.7977E-8
R1 10 4 21.18E6 RMOD
.MODEL RMOD R TC1=2.445E-5
GLR 4 10 2 4 4.646E-13
GLDR 4 10 22 6 2.707E-10
C1 4 10 4.7214E-13
*
* OPEN-LOOP GAIN
*
G2 4 11 10 21 1E-4
R2 4 11 1E6
*
* 3 POLES AT 2 MHz
*
G3 4 12 11 4 1E-6
R3 4 12 1E6
C2 4 12 0.0796E-12
*
G4 4 13 12 4 1E-6
R4 4 13 1E6
C3 4 13 0.0796E-12
*
GX5 4 17 13 4 1E-6
RX5 4 17 1E6
CX3 4 17 0.0796E-12
*
* SHORT CIRCUIT LIMIT
*
G5 14 4 17 4 1E-4
R10 14 4 1E4
D1 4 14 DX
G6 15 4 4 14 100E-6
GSC 4 15 22 6 54E-6
D2 16 15 DX
V1 4 16 DC 0
D3 15 4 DX
F1 4 15 V3 100
*
* SHUTDOWN CIRCUIT
*
R12 2 3 10E6
Q2 2 3 30 QN
V2 30 31 DC 0
R11 31 4 1.6E6
F3 4 32 POLY(1) V2 5E-6 -1000
D4 32 33 DX
V3 33 4 DC 0
D5 4 32 DX
*
* OUTPUT STAGE
*
ISY 2 4 DC 14.49E-6
F2 20 4 V1 1
R5 2 20 200E3
Q1 22 20 2 QP 80
R6 6 21 260.5E3
R7 21 4 85E3
RDO 22 6 25.5
*
.MODEL QP PNP(IS=1E-15 BF=10000)
.MODEL QN NPN(BF=100000)
.MODEL DX D(IS=1E-15)
.ENDS
*************
*SYM=REF195
*SRC=REF193;REF193;Voltage Ref.;Analog Devices;
* REF193 SPICE MACROMODEL                   1/96, Rev. A
*                                            (AAG /ADSC)
*
* Copyright 1996 by Analog Devices, Inc.
*
*  NODE NUMBERS
*               VIN
*               |  SHUTDOWN
*               |  |  GND
*               |  |  |  VOUT
*               |  |  |  |
.SUBCKT REF193  2  3  4  6
*
* 1.23V REFERENCE
*
I1 4 10 DC 5.8089E-8
R1 10 4 21.18E6 RMOD
.MODEL RMOD R TC1=9.023E-6
GLR 4 10 2 4 2.32295E-13
GLDR 4 10 22 6 2.5999E-10
C1 4 10 4.7214E-13
*
* OPEN-LOOP GAIN
*
G2 4 11 10 21 1E-4
R2 4 11 1E6
*
* 3 POLES AT 2 MHZ
*
G3 4 12 11 4 1E-6
R3 4 12 1E6
C2 4 12 0.0796E-12
*
G4 4 13 12 4 1E-6
R4 4 13 1E6
C3 4 13 0.0796E-12
*
GX5 4 17 13 4 1E-6
RX5 4 17 1E6
CX3 4 17 0.0796E-12
*
* SHORT CIRCUIT LIMIT
*
G5 14 4 17 4 1E-4
R10 14 4 1E4
D1 4 14 DX
G6 15 4 4 14 100E-6
GSC 4 15 22 6 51E-6
D2 16 15 DX
V1 4 16 DC 0
D3 15 4 DX
F1 4 15 V3 100
*
* SHUTDOWN CIRCUIT
*
R12 2 3 10E6
Q2 2 3 30 QN
V2 30 31 DC 0
R11 31 4 1.93E5
F3 4 32 POLY(1) V2 5E-6 -1000
D4 32 33 DX
V3 33 4 DC 0
D5 4 32 DX
*
* OUTPUT STAGE
*
ISY 2 4 DC 14.67E-6
F2 20 4 V1 1
R5 2 20 200E3
Q1 22 20 2 QP 80
R6 6 21 122.317E3
R7 21 4 85E3
RDO 22 6 27
*