***************
*SYM=ADOPAMP
*SRC=AD8002A;AD8002A;Opamps;AD-"ADxxx";
*AD8002A SPICE Macro Model          11/95, Rev. A
*                                         RFD/ADS
*  
* Copyright 1995 by Analog Devices, Inc.
*
* This version of the AD8002 model simulates the typical 
* parameters of the 'A' grade part.  
*
* This model was developed using the +/-5V specifications.
*
* Node assignments
*               Non-inverting input
*               | Inverting input
*               | | Positive supply
*               | | | Negative supply
*               | | | | Output
*               | | | | |
.SUBCKT AD8002A 3 2 7 4 6 
*
* INPUT STAGE
*
Q1 7 9 10 QN
Q2 4 9 11 QP
Q3 14 11 15 QN
Q4 16 10 15 QP
I1 10 4 DC 2.568e-4 
I2 7 11 DC 2.568e-4 
D1 17 14 DX 
D2 16 18 DX 
V2 18 4 DC -4.41135e-2 
V1 7 17 DC -4.41135e-2 
R1 14 7 1E3 
R2 4 16 1E3 
CS1 7 2 .235e-12 
CS2 2 4 .235e-12 
CIN 3 4 1.5E-12 
LIN- 15 2 .9e-9 
GB1 7 3 POLY(1) 3 100 3e-6 0.2e-6
GB2 7 2 POLY(1) 3 100 5e-6 0.3e-6
EOS 3 9 POLY(1) 100 23 2E-3 1
*
* GAIN STAGE
*
V3 7 20 DC 2.4 
V4 21 4 DC 2.4 
R3 100 19 9e5 
C1 19 100 6.1e-13 
D3 19 20 DX 
D4 21 19 DX 
G1 100 19 POLY(1) 7 14 0.0 1E-3
G2 19 100 POLY(1) 16 4 0.0 1E-3
EREF 100 0 POLY(2) 7 0   4 0   0 0.5 0.5
*
* CMRR STAGE
*
CCM 22 23 4.56424e-13 
RCM2 100 23 1 
RCM1 23 22 1e4 
ECM 22 100 POLY(1) 100 3 0.0 31.668
*
* POLE STAGE AT
*
C3 100 24 2.273642e-16 
R5 24 100 1e6 
G4 100 24 POLY(1) 19 100  0.0 1E-6
*
* POLE STAGE AT
*
C4 25 100 3.978877e-17 
R6 25 100 1e6 
G5 100 25 POLY(1) 24 100 0.0 1E-6
* 
* OUTPUT STAGE
* 
RO1 33 7 21.4 
RO2 4 33 21.4 
VW 25 30 DC 0 
VSC1 31 33 DC .58 
VSC2 33 32 DC .58 
LO 33 6 2e-9 
DSC2 32 30 DX 
DSC1 30 31 DX 
GO1 33 7 POLY(1) 7 30 0.0 4.6728972e-2
GO2 4 33 POLY(1) 30 4 0.0 4.6728972e-2
*
VSY1 36 100 DC 0 
VSY2 100 37 DC 0 
DSY1 35 36 DX 
DSY2 37 35 DX 
FSY 7 4 POLY(2) VSY1 VSY2 4.7326E-3 1 1
GSY 100 35 33 30 4.6728972E-2
*
.MODEL QN NPN(BF=100 IS=1E-15)
.MODEL QP PNP(BF=100 IS=1E-15)
.MODEL DX D(IS=1E-15)
.ENDS
*******
*SYM=ADOPAMP
*SRC=AD8002AN;AD8002AN;Opamps;AD-"ADxxx";
*AD8002AN SPICE Macro Model        11/95, Rev. A
*                                        RFD/ADS
*  
* This version of the AD8002 model simulates the worst case 
* parameters of the 'A' grade in the 'N ' package (PDIP).  The Worst case
* parameters used correspond to those in the data sheet. 
* This model was developed using the +/-5V specifications.
*
* Copyright 1995 by Analog Devices, Inc.
*
* Node assignments
*                Non-inverting input
*                | Inverting input
*                | | Positive supply
*                | | | Negative supply
*                | | | | Output
*                | | | | |
.SUBCKT AD8002AN 3 2 7 4 6 
*
* INPUT STAGE
*
Q1 7 9 10 QN
Q2 4 9 11 QP
Q3 14 11 15 QN
Q4 16 10 15 QP
I1 10 4 DC 2.568e-4 
I2 7 11 DC 2.568e-4 
D1 17 14 DX 
D2 16 18 DX 
V2 18 4 DC -4.41135e-2 
V1 7 17 DC -4.41135e-2 
R1 14 7 1E3 
R2 4 16 1E3 
CS1 7 2 .25e-12 
CS2 2 4 .25e-12 
CIN 3 4 1.5E-12 
LIN- 15 2 .9e-9 
GB1 7 3 POLY(1) 3 100 6e-6 0.9e-6
GB2 7 2 POLY(1) 3 100 25e-6 1e-6
EOS 3 9 POLY(1) 100 23 6E-3 1
*
*GAINST 
*
V3 7 20 DC 2.8108 
V4 21 4 DC 2.8108 
R3 100 19 3.1e5 
C1  19 100 6.05E-13
D3 19 20 DX 
D4 21 19 DX 
G1 100 19 POLY(1) 7 14 0.0 1E-3
G2 19 100 POLY(1) 16 4 0.0 1E-3
EREF 100 0 POLY(2) 7 0 4 0 0 0.5 0.5
*
*  CMRR
*
CCM 22 23 4.56424e-13 
RCM2 100 23 1 
RCM1 23 22 1e4 
ECM 22 100 POLY(1) 100 3 0.0 31.668
*
* POLE 1
*
C3 100 24 2.273642e-16 
R5 24 100 1e6 
G4 100 24 POLY(1) 19 100 0.0 1E-6
*
* POLE 2
*
C4 25 100 3.978877e-17 
R6 25 100 1e6 
G5 100 25 POLY(1) 24 100 0.0 1E-6
* 
*  OUTPUT
* 
RO1 33 7 21.4 
RO2 4 33 21.4 
VW 25 30 DC 0 
VSC1 31 33 DC .325 
VSC2 33 32 DC .325 
LO 33 6 2e-9 
DSC2 32 30 DX 
DSC1 30 31 DX 
GO1 33 7 POLY(1) 7 30 0.0 4.6728972e-2
GO2 4 33 POLY(1) 30 4 0.0 4.6728972e-2
*
VSY1 36 100 DC 0 
VSY2 100 37 DC 0 
DSY1 35 36 DX 
DSY2 37 35 DX 
FSY 7 4 POLY(2) VSY1 VSY2 4.7326E-3 1 1
GSY 100 35 33 30 4.6728972E-2
*
.MODEL QN NPN(BF=100 IS=1E-15)
.MODEL QP PNP(BF=100 IS=1E-15)
.MODEL DX D(IS=1E-15)
.ENDS
*******
*SYM=ADOPAMP
*SRC=AD8002AR;AD8002AR;Opamps;AD-"ADxxx";
*AD8002AR SPICE Macro Model        11/95  Rev. A
*                                        RFD/ADS
*  
* This version of the AD8002 model simulates the worst case 
* parameters of the 'A' grade in the 'R ' package (SOIC).  The Worst case
* parameters used correspond to those in the data sheet. 
* This model was developed using the +/-5V specifications.
*
* Copyright 1995 by Analog Devices  Inc.
*
* Node assignments
*                Non-inverting input
*                | Inverting input
*                | | Positive supply
*                | | | Negative supply
*                | | | | Output
*                | | | | |
.SUBCKT AD8002AR 3 2 7 4 6
*
*INPUT STAGE
*
Q1 7 9 10 QN
Q2 4 9 11 QP
Q3 14 11 15 QN
Q4 16 10 15 QP
I1 10 4 DC 2.568e-4 
I2 7 11 DC 2.568e-4 
D1 17 14 DX 
D2 16 18 DX 
V2 18 4 DC -4.41135e-2 
V1 7 17 DC -4.41135e-2 
R1 14 7 1E3 
R2 4 16 1E3 
CS1 7 2 .25e-12 
CS2 2 4 .25e-12 
CIN 3 4 1.5E-12 
LIN- 15 2 .9e-9 
GB1 7 3 POLY(1) 3 100 6e-6 0.9e-6
GB2 7 2 POLY(1) 3 100 25e-6 1e-6
EOS 3 9 POLY(1) 100 23 6E-3 1
*
*gainst
*
V3 7 20 DC 2.8108 
V4 21 4 DC 2.8108 
R3 100 19 3.1e5 
C1 19 100 6.4987781e-13 
D3 19 20 DX 
D4 21 19 DX 
G1 100 19 POLY(1) 7 14 0 1E-3
G2 19 100 POLY(1) 16 4 0 1E-3
EREF 100 0 POLY(2) 7 0 4 0 0 0.5 0.5
*
*CMRR
*
CCM 22 23 4.56424e-13 
RCM2 100 23 1 
RCM1 23 22 1e4 
ECM 22 100 100 3 31.668
*
**POLE1
*
C3 100 24 2.273644e-16 
R5 24 100 1e6 
G4 100 24 19 100 1E-6
*
***POLE2
*
C4 25 100 3.978877e-17 
R6 25 100 1e6 
G5 100 25 24 100 1E-6
*
*OUTPUT
*
RO1 33 7 21.4 
RO2 4 33 21.4 
VW 25 30 DC 0 
VSC1 31 33 DC .325 
VSC2 33 32 DC .325 
LO 33 6 2e-9 
DSC2 32 30 DX 
DSC1 30 31 DX 
GO1 33 7 POLY(1) 7 30 0.0  4.6728972e-2
GO2 4 33 POLY(1) 30 4 0.0  4.6728972e-2
*
VSY1 36 100 DC 0 
VSY2 100 37 DC 0 
DSY1 35 36 DX 
DSY2 37 35 DX 
FSY 7 4 POLY(2) VSY1 VSY2 4.7326E-3 1 1
GSY 100 35 33 30 4.6728972E-2
*
.MODEL QN NPN(BF=100 IS=1E-15)
.MODEL QP PNP(BF=100 IS=1E-15)
.MODEL DX D(IS=1E-15)
.ENDS
*******
*SYM=ADOPAMP
*SRC=AD820A;AD820A;Opamps;AD-"ADxxx";
* AD820A  SPICE Macro-model             2/95  Rev. A
*                                       ARG / ADSC
*
* This version of the AD820 model simulates the worst-case
* parameters of the 'A' grade. The worst-case parameters
* used correspond to those in the data sheet.
*
* Copyright 1995 by Analog Devices  Inc.
*
* Node assignments
*                non-inverting input
*                | inverting input
*                | | positive supply
*                | | |  negative supply
*                | | |  |  output
*                | | |  |  |
.SUBCKT AD820A   1 2 99 50 25
*
* INPUT STAGE & POLE AT 5MHZ
*
R3 5 99 2456
R4 6 99 2456
CIN 1 2 5E-12
C2 5 6 6.48E-12
I1 4 50 108E-6
IOS 1 2 1E-11
EOS 7 1 POLY(1) 12 98 800E-6 2.41
J1 5 2 4 JX
J2 6 7 4 JX
GB1 50 2 POLY(3) 2 4 2 5 2 50 0 1E-12 1E-12 1E-12
GB2 50 7 POLY(3) 7 4 7 5 7 50 0 1E-12 1E-12 1E-12
*
EREF 98 0 30 0 1
*
* GAIN STAGE & POLE AT 25 HZ
*
R5 9 98 1.234E6
C3 9 25 32E-12
G1 98 9 6 5 4.07E-4
V1 8 98 0
V2 98 10 -1
D1 9 10 DX
D2 8 9 DX
*
* COMMON-MODE GAIN NETWORK WITH ZERO AT 5 KHZ
*
R21 11 12 1E6
R22 12 98 200
C14 11 12 32.25E-12
E13 11 98 POLY(2) 2 98 1 98 0 0.5 0.5
*
* POLE AT 10 MHZ
*
R23 18 98 1E6
C15 18 98 15.9E-15
G15 98 18 9 98 1E-6
*
* OUTPUT STAGE
*
ES 26 51 POLY(1) 18 98 1.72 1
RS 26 22 500
V3 23 51 1.03951
V4 21 23 1.36
C16 20 25 2E-12
C17 24 25 2E-12
RG1 20 97 1E8
RG2 24 97 1E8
Q1 20 20 97 PNP
Q2 20 21 22 NPN
Q3 24 23 22 PNP
Q4 24 24 51 NPN
Q5 25 20 97 PNP 20
Q6 25 24 51 NPN 20
VP 96 97 0
VN 51 52 0
EP 96 0 POLY(1) 99 0 0.01 1
EN 52 0 POLY(1) 50 0 -0.015 1
R25 30 99 275E3
R26 30 50 275E3
FSY1 99 0 POLY(1) VP 210.5E-6 1
FSY2 0 50 POLY(1) VN 210.5E-6 1
*
* MODELS USED
*
.MODEL JX NJF(BETA=7.67E-4 VTO=-2.000 IS=12.5E-12)
.MODEL NPN NPN(BF=120 VAF=150 VAR=15 RB=2E3 RE=4 RC=200)
.MODEL PNP PNP(BF=120 VAF=150 VAR=15 RB=2E3 RE=4 RC=900)
.MODEL DX D(IS=1E-15)
.ENDS
*******
*SYM=ADOPAMP
*SRC=AD820B;AD820B;Opamps;AD-"ADxxx";
* AD820B  SPICE Macro-model             2/95  Rev. A
*                                       ARG / ADSC
*
* This version of the AD820 model simulates the worst-case
* parameters of the 'B' grade. The worst-case parameters
* used correspond to those in the data sheet.
*
* Copyright 1995 by Analog Devices  Inc.
*
* Node assignments
*                non-inverting input
*                | inverting input
*                | | positive supply
*                | | |  negative supply
*                | | |  |  output
*                | | |  |  |
.SUBCKT AD820B   1 2 99 50 25
*
* INPUT STAGE & POLE AT 5MHZ
*
R3 5 99 2456
R4 6 99 2456
CIN 1 2 5E-12
C2 5 6 6.48E-12
I1 4 50 108E-6
IOS 1 2 5E-12
EOS 7 1 POLY(1) 12 98 400E-6 2.41
J1 5 2 4 JX
J2 6 7 4 JX
GB1 50 2 POLY(3) 2 4 2 5 2 50 0 1E-12 1E-12 1E-12
GB2 50 7 POLY(3) 7 4 7 5 7 50 0 1E-12 1E-12 1E-12
*
EREF 98 0 30 0 1
*
* GAIN STAGE & POLE AT 25 HZ
*
R5 9 98 1.234E6
C3 9 25 32E-12
G1 98 9 6 5 4.07E-4
V1 8 98 0
V2 98 10 -1
D1 9 10 DX
D2 8 9 DX
*
* COMMON-MODE GAIN NETWORK WITH ZERO AT 2.47 KHZ
*
R21 11 12 1E6
R22 12 98 100
C14 11 12 64.5E-12
E13 11 98 POLY(2) 2 98 1 98 0 0.5 0.5
*
* POLE AT 10 MHZ
*
R23 18 98 1E6
C15 18 98 15.9E-15
G15 98 18 9 98 1E-6
*
* OUTPUT STAGE
*
ES 26 51 POLY(1) 18 98 1.72 1
RS 26 22 500
V3 23 51 1.03951
V4 21 23 1.36
C16 20 25 2E-12
C17 24 25 2E-12
RG1 20 97 1E8
RG2 24 97 1E8
Q1 20 20 97 PNP
Q2 20 21 22 NPN
Q3 24 23 22 PNP
Q4 24 24 51 NPN
Q5 25 20 97 PNP 20
Q6 25 24 51 NPN 20
VP 96 97 0
VN 51 52 0
EP 96 0 POLY(1) 99 0 0.01 1
EN 52 0 POLY(1) 50 0 -0.015 1
R25 30 99 275E3
R26 30 50 275E3
FSY1 99 0 POLY(1) VP 210.5E-6 1
FSY2 0 50 POLY(1) VN 210.5E-6 1
*
* MODELS USED
*
.MODEL JX NJF(BETA=7.67E-4 VTO=-2.000 IS=5E-12)
.MODEL NPN NPN(BF=120 VAF=150 VAR=15 RB=2E3 RE=4 RC=200)
.MODEL PNP PNP(BF=120 VAF=150 VAR=15 RB=2E3 RE=4 RC=900)
.MODEL DX D(IS=1E-15)
.ENDS
*******
*SYM=ADOPAMP
*SRC=AD822;AD822;Opamps;AD-"ADxxx";
* AD822 SPICE Macro-model               2/95  Rev. A
*                                       ARG / ADSC
*
* Copyright 1995 by Analog Devices  Inc.
*
* Node assignments
*                non-inverting input
*                | inverting input
*                | | positive supply
*                | | |  negative supply
*                | | |  |  output
*                | | |  |  |
.SUBCKT AD822    1 2 99 50 25
*
* INPUT STAGE & POLE AT 5 MHZ
*
R3 5 99 2456
R4 6 99 2456
CIN 1 2 5E-12
C2 5 6 6.48E-12
I1 4 50 108E-6
IOS 1 2 1E-12
EOS 7 1 POLY(1) 12 98 100E-6 1
J1 5 2 4 JX
J2 6 7 4 JX
GB1 50 2 POLY(3) 2 4 2 5 2 50 0 1E-12 1E-12 1E-12
GB2 50 7 POLY(3) 7 4 7 5 7 50 0 1E-12 1E-12 1E-12
*
* GAIN STAGE & POLE AT 13.4 HZ
*
EREF 98 0 30 0 1
R5 9 98 2.313E6
C3 9 25 32E-12
G1 98 9 6 5 4.07E-4
V1 8 98 0
V2 98 10 -1
D1 9 10 DX
D2 8 9 DX
*
* COMMON-MODE GAIN NETWORK WITH ZERO AT 1 KHZ
*
R21 11 12 1E6
R22 12 98 100
C14 11 12 159E-12
E13 11 98 POLY(2) 2 98 1 98 0 0.5 0.5
*
* POLE AT 10 MHZ
*
R23 18 98 1E6
C15 18 98 15.9E-15
G15 98 18 9 98 1E-6
*
* OUTPUT STAGE
*
ES 26 51 POLY(1) 18 98 1.72 1
RS 26 22 500
V3 23 51 1.03951
V4 21 23 1.36
C16 20 25 2E-12
C17 24 25 2E-12
RG1 20 97 1E8
RG2 24 97 1E8
Q1 20 20 97 PNP
Q2 20 21 22 NPN
Q3 24 23 22 PNP
Q4 24 24 51 NPN
Q5 25 20 97 PNP 20
Q6 25 24 51 NPN 20
VP 96 97 0
VN 51 52 0
EP 96 0 POLY(1) 99 0 0.01 1
EN 52 0 POLY(1) 50 0 -0.015 1
R25 30 99 63.5E3
R26 30 50 63.5E3
FSY1 99 0 VP 1
FSY2 0 50 VN 1
*
* MODELS USED
*
.MODEL JX NJF(BETA=7.67E-4 VTO=-2.000 IS=1E-12)
.MODEL NPN NPN(BF=120 VAF=150 VAR=15 RB=2E3 RE=4 RC=200)
.MODEL PNP PNP(BF=120 VAF=150 VAR=15 RB=2E3 RE=4 RC=900)
.MODEL DX D(IS=1E-15)
.ENDS
*******
*SYM=ADOPAMP
*SRC=AD822A;AD822A;Opamps;AD-"ADxxx";
* AD822A  SPICE Macro-model             2/95  Rev. A
*                                       ARG / ADSC
*
* This version of the AD822 model simulates the worst-case
* parameters of the 'A' grade. The worst-case parameters
* used correspond to those in the data sheet.
*
* Copyright 1995 by Analog Devices  Inc.
*
* Node assignments
*                non-inverting input
*                | inverting input
*                | | positive supply
*                | | |  negative supply
*                | | |  |  output
*                | | |  |  |
.SUBCKT AD822A   1 2 99 50 25
*
* INPUT STAGE & POLE AT 5MHZ
*
R3 5 99 2456
R4 6 99 2456
CIN 1 2 5E-12
C2 5 6 6.48E-12
I1 4 50 108E-6
IOS 1 2 1E-11
EOS 7 1 POLY(1) 12 98 800E-6 2.41
J1 5 2 4 JX
J2 6 7 4 JX
GB1 50 2 POLY(3) 2 4 2 5 2 50 0 1E-12 1E-12 1E-12
GB2 50 7 POLY(3) 7 4 7 5 7 50 0 1E-12 1E-12 1E-12
*
EREF 98 0 30 0 1
*
* GAIN STAGE & POLE AT 25 HZ
*
R5 9 98 1.234E6
C3 9 25 32E-12
G1 98 9 6 5 4.07E-4
V1 8 98 0
V2 98 10 -1
D1 9 10 DX
D2 8 9 DX
*
* COMMON-MODE GAIN NETWORK WITH ZERO AT 5 KHZ
*
R21 11 12 1E6
R22 12 98 200
C14 11 12 32.25E-12
E13 11 98 POLY(2) 2 98 1 98 0 0.5 0.5
*
* POLE AT 10 MHZ
*
R23 18 98 1E6
C15 18 98 15.9E-15
G15 98 18 9 98 1E-6
*
* OUTPUT STAGE
*
ES 26 51 POLY(1) 18 98 1.72 1
RS 26 22 500
V3 23 51 1.03951
V4 21 23 1.36
C16 20 25 2E-12
C17 24 25 2E-12
RG1 20 97 1E8
RG2 24 97 1E8
Q1 20 20 97 PNP
Q2 20 21 22 NPN
Q3 24 23 22 PNP
Q4 24 24 51 NPN
Q5 25 20 97 PNP 20
Q6 25 24 51 NPN 20
VP 96 97 0
VN 51 52 0
EP 96 0 POLY(1) 99 0 0.01 1
EN 52 0 POLY(1) 50 0 -0.015 1
R25 30 99 275E3
R26 30 50 275E3
FSY1 99 0 POLY(1) VP 210.5E-6 1
FSY2 0 50 POLY(1) VN 210.5E-6 1
*
* MODELS USED
*
.MODEL JX NJF(BETA=7.67E-4 VTO=-2.000 IS=12.5E-12)
.MODEL NPN NPN(BF=120 VAF=150 VAR=15 RB=2E3 RE=4 RC=200)
.MODEL PNP PNP(BF=120 VAF=150 VAR=15 RB=2E3 RE=4 RC=900)
.MODEL DX D(IS=1E-15)
.ENDS
*******
*SYM=ADOPAMP
*SRC=AD822B;AD822B;Opamps;AD-"ADxxx";
* AD822B  SPICE Macro-model             2/95  Rev. A
*                                       ARG / ADSC
*
* This version of the AD822 model simulates the worst-case
* parameters of the 'B' grade. The worst-case parameters
* used correspond to those in the data sheet.
*
* Copyright 1995 by Analog Devices  Inc.
*
* Node assignments
*                non-inverting input
*                | inverting input
*                | | positive supply
*                | | |  negative supply
*                | | |  |  output
*                | | |  |  |
.SUBCKT AD822B   1 2 99 50 25
*
* INPUT STAGE & POLE AT 5MHZ
*
R3 5 99 2456
R4 6 99 2456
CIN 1 2 5E-12
C2 5 6 6.48E-12
I1 4 50 108E-6
IOS 1 2 5E-12
EOS 7 1 POLY(1) 12 98 400E-6 2.41
J1 5 2 4 JX
J2 6 7 4 JX
GB1 50 2 POLY(3) 2 4 2 5 2 50 0 1E-12 1E-12 1E-12
GB2 50 7 POLY(3) 7 4 7 5 7 50 0 1E-12 1E-12 1E-12
*
EREF 98 0 30 0 1
*
* GAIN STAGE & POLE AT 25 HZ
*
R5 9 98 1.234E6
C3 9 25 32E-12
G1 98 9 6 5 4.07E-4
V1 8 98 0
V2 98 10 -1
D1 9 10 DX
D2 8 9 DX
*
* COMMON-MODE GAIN NETWORK WITH ZERO AT 3.5 KHZ
*
R21 11 12 1E6
R22 12 98 141
C14 11 12 45.6E-12
E13 11 98 POLY(2) 2 98 1 98 0 0.5 0.5
*
* POLE AT 10 MHZ
*
R23 18 98 1E6
C15 18 98 15.9E-15
G15 98 18 9 98 1E-6
*
* OUTPUT STAGE
*
ES 26 51 POLY(1) 18 98 1.72 1
RS 26 22 500
V3 23 51 1.03951
V4 21 23 1.36
C16 20 25 2E-12
C17 24 25 2E-12
RG1 20 97 1E8
RG2 24 97 1E8
Q1 20 20 97 PNP
Q2 20 21 22 NPN
Q3 24 23 22 PNP
Q4 24 24 51 NPN
Q5 25 20 97 PNP 20
Q6 25 24 51 NPN 20
VP 96 97 0
VN 51 52 0
EP 96 0 POLY(1) 99 0 0.01 1
EN 52 0 POLY(1) 50 0 -0.015 1
R25 30 99 275E3
R26 30 50 275E3
FSY1 99 0 POLY(1) VP 210.5E-6 1
FSY2 0 50 POLY(1) VN 210.5E-6 1
*
* MODELS USED
*
.MODEL JX NJF(BETA=7.67E-4 VTO=-2.000 IS=5E-12)
.MODEL NPN NPN(BF=120 VAF=150 VAR=15 RB=2E3 RE=4 RC=200)
.MODEL PNP PNP(BF=120 VAF=150 VAR=15 RB=2E3 RE=4 RC=900)
.MODEL DX D(IS=1E-15)
.ENDS
*******
*SYM=ADOPAMP
*SRC=AD822S;AD822S;Opamps;AD-"ADxxx";
* AD822S  SPICE Macro-model             2/95  Rev. A
*                                       ARG / ADSC
*
* This version of the AD822 model simulates the worst-case
* parameters of the 'S' grade. The worst-case parameters
* used correspond to those in the data sheet.
*
* Copyright 1995 by Analog Devices  Inc.
*
* Node assignments
*                non-inverting input
*                | inverting input
*                | | positive supply
*                | | |  negative supply
*                | | |  |  output
*                | | |  |  |
.SUBCKT AD822S   1 2 99 50 25
*
* INPUT STAGE & POLE AT 5MHZ
*
R3 5 99 2456
R4 6 99 2456
CIN 1 2 5E-12
C2 5 6 6.48E-12
I1 4 50 108E-6
IOS 1 2 1E-11
EOS 7 1 POLY(1) 12 98 800E-6 2.41
J1 5 2 4 JX
J2 6 7 4 JX
GB1 50 2 POLY(3) 2 4 2 5 2 50 0 1E-12 1E-12 1E-12
GB2 50 7 POLY(3) 7 4 7 5 7 50 0 1E-12 1E-12 1E-12
*
EREF 98 0 30 0 1
*
* GAIN STAGE & POLE AT 25 HZ
*
R5 9 98 1.234E6
C3 9 25 32E-12
G1 98 9 6 5 4.07E-4
V1 8 98 0
V2 98 10 -1
D1 9 10 DX
D2 8 9 DX
*
* COMMON-MODE GAIN NETWORK WITH ZERO AT 5 KHZ
*
R21 11 12 1E6
R22 12 98 200
C14 11 12 32.25E-12
E13 11 98 POLY(2) 2 98 1 98 0 0.5 0.5
*
* POLE AT 10 MHZ
*
R23 18 98 1E6
C15 18 98 15.9E-15
G15 98 18 9 98 1E-6
*
* OUTPUT STAGE
*
ES 26 51 POLY(1) 18 98 1.72 1
RS 26 22 500
V3 23 51 1.03951
V4 21 23 1.36
C16 20 25 2E-12
C17 24 25 2E-12
RG1 20 97 1E8
RG2 24 97 1E8
Q1 20 20 97 PNP
Q2 20 21 22 NPN
Q3 24 23 22 PNP
Q4 24 24 51 NPN
Q5 25 20 97 PNP 20
Q6 25 24 51 NPN 20
VP 96 97 0
VN 51 52 0
EP 96 0 POLY(1) 99 0 0.01 1
EN 52 0 POLY(1) 50 0 -0.015 1
R25 30 99 275E3
R26 30 50 275E3
FSY1 99 0 POLY(1) VP 210.5E-6 1
FSY2 0 50 POLY(1) VN 210.5E-6 1
*
* MODELS USED
*
.MODEL JX NJF(BETA=7.67E-4 VTO=-2.000 IS=12.5E-12)
.MODEL NPN NPN(BF=120 VAF=150 VAR=15 RB=2E3 RE=4 RC=200)
.MODEL PNP PNP(BF=120 VAF=150 VAR=15 RB=2E3 RE=4 RC=900)
.MODEL DX D(IS=1E-15)
.ENDS
*******
*SYM=AD406
*SRC=ADG426;ADG426;Multiplexors;Analog Devices;8:1 Analog Mux
* ADG426 SPICE Macro-model                10/95  Rev. D
*                                           WF / ADSC
*
* Revision History: NONE
*
*       NOTES: 1. This model was setup with typical leakage currents
*               at +25C for ADG426 
*              2. The digital address latches are not implemented.
*
* Copyright 1995 by Analog Devices  Inc.
*
* Node assignments
* 19 - S1  20 - S2  21 - S3  22 - S4  23 - S5  24 - S6  25 - S7
* 26 - S8  11 - S9 10 - S10  9 - S11  8 - S12  7 - S13  6 - S14
* 5 - S15  4 - S16  14 - A3  15 - A2  16 - A1  17 - A0  18 - EN
* 28 - D  1 - VDD  12 - GND  27 - VSS
*                    
.SUBCKT ADG426 19 20 21 22 23 24 25 26 11 10 9 8 7 6 5 4 14 15 16 17 18 28 1 12 27
*
* DEMUX SWITCHES S1-16 ---> D)
*
*     First Section is for control line A0
*          All nodes in this section are in the 30's unless
*          they are I/O nodes
*
E_A0_2    200 12  17 12    1
E_A0_1     30 40 201 40   -1
R_A0_1    200 201         1000
C_A0_X2   201 12          100E-12

V_AX_1     40  12          1.6

xS_A0_16     4 31 201 12   Sdemux {RON=1 ROFF=1E12 VON=2.0 VOFF=1.4}
xS_A0_15     5 31 30  12   Sdemux {RON=1 ROFF=1E12 VON=2.0 VOFF=1.4}                
xS_A0_14     6 32 201 12   Sdemux {RON=1 ROFF=1E12 VON=2.0 VOFF=1.4}
xS_A0_13     7 32 30  12   Sdemux {RON=1 ROFF=1E12 VON=2.0 VOFF=1.4}
xS_A0_12     8 33 201 12   Sdemux {RON=1 ROFF=1E12 VON=2.0 VOFF=1.4}
xS_A0_11     9 33 30  12   Sdemux {RON=1 ROFF=1E12 VON=2.0 VOFF=1.4}
xS_A0_10    10 34 201 12   Sdemux {RON=1 ROFF=1E12 VON=2.0 VOFF=1.4}
xS_A0_9     11 34 30  12   Sdemux {RON=1 ROFF=1E12 VON=2.0 VOFF=1.4}
xS_A0_8     26 35 201 12   Sdemux {RON=1 ROFF=1E12 VON=2.0 VOFF=1.4}
xS_A0_7     25 35 30  12   Sdemux {RON=1 ROFF=1E12 VON=2.0 VOFF=1.4}
xS_A0_6     24 36 201 12   Sdemux {RON=1 ROFF=1E12 VON=2.0 VOFF=1.4}
xS_A0_5     23 36 30  12   Sdemux {RON=1 ROFF=1E12 VON=2.0 VOFF=1.4}
xS_A0_4     22 37 201 12   Sdemux {RON=1 ROFF=1E12 VON=2.0 VOFF=1.4}
xS_A0_3     21 37 30  12   Sdemux {RON=1 ROFF=1E12 VON=2.0 VOFF=1.4}
xS_A0_2     20 38 201 12   Sdemux {RON=1 ROFF=1E12 VON=2.0 VOFF=1.4}
xS_A0_1     19 38 30  12   Sdemux {RON=1 ROFF=1E12 VON=2.0 VOFF=1.4}

C_A0_X1     17 12          4E-12
C_A0_D      17 39          4E-12

*          Input capacitances

C_A0_1     19  12          8E-12
C_A0_2     20  12         8E-12
C_A0_3     21  12         8E-12
C_A0_4     22  12         8E-12
C_A0_5     23  12         8E-12
C_A0_6     24  12         8E-12
C_A0_7     25  12         8E-12
C_A0_8     26  12         8E-12
C_A0_9     11  12         8E-12
C_A0_10    10  12         8E-12
C_A0_11     9  12         8E-12
C_A0_12     8  12         8E-12
C_A0_13     7  12         8E-12
C_A0_14     6  12         8E-12
C_A0_15     5  12         8E-12
C_A0_16     4  12         8E-12

C_D_1      28  12         80E-12

*
*       Leakage Current SX and D ON only 
*

R_ON_S1    19 500    1.5E12
R_ON_S2    20 500    1.5E12
R_ON_S3    21 500    1.5E12
R_ON_S4    22 500    1.5E12
R_ON_S5    23 500    1.5E12
R_ON_S6    24 500    1.5E12
R_ON_S7    25 500    1.5E12
R_ON_S8    26 500    1.5E12
R_ON_S9    11 500    1.5E12
R_ON_S10   10 500    1.5E12
R_ON_S11    9 500    1.5E12
R_ON_S12    8 500    1.5E12
R_ON_S13    7 500    1.5E12
R_ON_S14    6 500    1.5E12
R_ON_S15    5 500    1.5E12
R_ON_S16    4 500    1.5E12
xSLEAK_ON_D 28 500    28 500  SLEAK {RON=750E9 ROFF=150E9 VON=-15 VOFF=15}
ILEAK_ON_D 28 500   -10E-12               
* 
*       Leakage Current SX OFF only)
*
*       Leakage Current D OFF only)
*
xS_OFF_D     28  58 80 12          Sdemux {RON=1 ROFF=1E12 VON=2.0 VOFF=1.4}
R_OFF_D     58  12                1E12 
G_OFF_D     28  12 58 12          0.75E-12
*
*     Second Section is for control line A1
*
E_A1_2    170 12 16  12    1
E_A1_1     41 40 171 40   -1
R_A1_1    170 171         1000
C_A1_X2   171 12          100E-12
*
xS_A1_1     31 42 171 12    Sdemux {RON=1 ROFF=1E12 VON=2.0 VOFF=1.4}
xS_A1_2     32 42 41  12    Sdemux {RON=1 ROFF=1E12 VON=2.0 VOFF=1.4}
xS_A1_3     33 43 171 12    Sdemux {RON=1 ROFF=1E12 VON=2.0 VOFF=1.4}
xS_A1_4     34 43 41  12    Sdemux {RON=1 ROFF=1E12 VON=2.0 VOFF=1.4}
xS_A1_5     35 44 171 12    Sdemux {RON=1 ROFF=1E12 VON=2.0 VOFF=1.4}
xS_A1_6     36 44 41  12    Sdemux {RON=1 ROFF=1E12 VON=2.0 VOFF=1.4}
xS_A1_7     37 45 171 12    Sdemux {RON=1 ROFF=1E12 VON=2.0 VOFF=1.4}
xS_A1_8     38 45 41  12    Sdemux {RON=1 ROFF=1E12 VON=2.0 VOFF=1.4}
*
C_A1_X     16 12           4E-12
C_A1_D     16 39           4E-12
*
*     Third Section is for control line A2
*

E_A2_2    160 12 15  12    1
E_A2_1     46 40 161 40   -1
R_A2_1    160 161         1000
C_A2_X2   161  12          100E-12

xS_A2_1     42 47 161 12     Sdemux {RON=1 ROFF=1E12 VON=2.0 VOFF=1.4}
xS_A2_2     43 47 46  12    Sdemux {RON=1 ROFF=1E12 VON=2.0 VOFF=1.4}
xS_A2_3     44 48 161 12    Sdemux {RON=1 ROFF=1E12 VON=2.0 VOFF=1.4}
xS_A2_4     45 48 46  12    Sdemux {RON=1 ROFF=1E12 VON=2.0 VOFF=1.4}

C_A2_X     15 12           4E-12
C_A2_D     15 39           4E-12

*
*     Forth Section is for control line A3
*

E_A3_2    140  12  14 12   1
E_A3_1     49  40 141 40   -1
R_A3_1    140 141         1000
C_A3_X2   141  12          100E-12

xS_A3_1     47 39 141 12     Sdemux {RON=1 ROFF=1E12 VON=2.0 VOFF=1.4}
xS_A3_2     48 39 49  12    Sdemux {RON=1 ROFF=1E12 VON=2.0 VOFF=1.4}

C_A3_X     14 12           4E-12
C_A3_D     14 39           4E-12

*
*     Main Series Switch combination
*
*

V_1_A     419  12  15
V_1_B     420  12  -15
V_1_C     421  500 -0.5         ;sets pos main offset
V_1_D     422  27  2.5          ;sets neg main offset
R_1_C     39   0   1E13
xS_1_A     425  39  420 73 Sdemux {RON=1 ROFF=500001 VON=9 VOFF=-44} ; SNCM 
R_1_A    412 425  24            ;sets neg at max d
xS_1_B      426  39  419 73 Sdemux {RON=450000 ROFF=1 VON=41 VOFF=-6.5} ; SPCM 
R_1_B     73 426  30            ;sets pos at max d
xS_1_C      73 412 611  12 Sdemux {RON=650001 ROFF=19 VON=32 VOFF=0} ; SMAINP 
xS_1_D     412 411  12 612 Sdemux {RON=700001 ROFF=7 VON=28.5 VOFF=0} ; SMAINN 
BE_1_E     611  12         V = (10*V(73,421))/(0.5*V(1,500)+0.005)
BE_1_F     612  12         V = (10*V(73,500))/(V(500,422)^1+0.005)
xS_1_G     411  39   1  27 Sdemux {RON=11 ROFF=3500 VON=28 VOFF=-10} ; SBASE 

I_XX_1    99 0 0       ;add a 'do-nothing' component
I_XX_2   421 0 0      ;  at nodes 99  421
I_XX_3   422 0 0      ;    and 422 to keep SPICE happy

*
*       Voltage Clamp 
*

D_1_POS     39  1    DClamp
G_1_POS     39  1  39  1  -1E-12
D_2_NEG     27  39   DClamp
G_2_NEG     27  39 27  39 1E-12

*     Enable Switch section
*

xS_EN_1     73 28 18  12     Sdemux {RON=1 ROFF=1E12 VON=2.0 VOFF=1.4}
C_EN_1     18 28           4.2E-12  ; SETS CHARGE INJECTION 

*     Invert Enable Switch section

E_EN0_1     18  81 80 12    -2
V_EN0_1     82  12          2.5
R_EN0_1     82  81         1
R_EN0_2     80  12          1E12

*
*     Power Supply Current Correction
*
I_PS_1      1  12           80E-6
I_PS_2     12  27           0.0001E-6
E_PS_1     99  12  1  12    1
E_PS_2    500  27  1  27    .5

*
*       Crosstalk 
*

RXT_1     19 52           1E13
RXT_2     20 52           1E13
RXT_3     21 52           1E13
RXT_4     22 52           1E13
RXT_5     23 52           1E13
RXT_6     24 52           1E13
RXT_7     25 52           1E13
RXT_8     26 52           1E13
RXT_9     11 52           1E13
RXT_10    10 52           1E13
RXT_11     9 52           1E13
RXT_12     8 52           1E13
RXT_13     7 52           1E13
RXT_14     6 52           1E13
RXT_15     5 52           1E13
RXT_16     4 52           1E13

CXT_1     19 52           1E-12
CXT_2     20 52           1E-12
CXT_3     21 52           1E-12
CXT_4     22 52           1E-12
CXT_5     23 52           1E-12
CXT_6     24 52           1E-12
CXT_7     25 52           1E-12
CXT_8     26 52           1E-12
CXT_9     11 52           1E-12
CXT_10    10 52           1E-12
CXT_11     9 52           1E-12
CXT_12     8 52           1E-12
CXT_13     7 52           1E-12
CXT_14     6 52           1E-12
CXT_15     5 52           1E-12
CXT_16     4 52           1E-12

*
*       OFF Isolation
*
COI_1     19 28           1E-13
COI_2     20 28           1E-13
COI_3     21 28           1E-13
COI_4     22 28           1E-13
COI_5     23 28           1E-13
COI_6     24 28           1E-13
COI_7     25 28           1E-13
COI_8     26 28           1E-13
COI_9     11 28           1E-13
COI_10    10 28           1E-13
COI_11     9 28           1E-13
COI_12     8 28           1E-13
COI_13     7 28           1E-13
COI_14     6 28           1E-13
COI_15     5 28           1E-13
COI_16     4 28           1E-13
ROI_1     19 1901         1.6E9
COI_1A    1901 28         10E-12
ROI_2     20 1902         1.6E9
COI_2A    1902 28         10E-12
ROI_3     21 1903         1.6E9
COI_3A    1903 28         10E-12
ROI_4     22 1904         1.6E9
COI_4A    1904 28         10E-12
ROI_5     23 1905         1.6E9
COI_5A    1905 28         10E-12
ROI_6     24 1906         1.6E9
COI_6A    1906 28         10E-12
ROI_7     25 1907         1.6E9
COI_7A    1907 28         10E-12
ROI_8     26 1908         1.6E9
COI_8A    1908 28         10E-12
ROI_9     11 1909         1.6E9
COI_9A    1909 28         10E-12
ROI_10     10 1910         1.6E9
COI_10A    1910 28         10E-12
ROI_11     9 1911         1.6E9
COI_11A    1911 28         10E-12
ROI_12     8 1912         1.6E9
COI_12A    1912 28         10E-12
ROI_13     7 1913         1.6E9
COI_13A    1913 28         10E-12
ROI_14     6 1914         1.6E9
COI_14A    1914 28         10E-12
ROI_15     5 1915         1.6E9
COI_15A    1915 28         10E-12
ROI_16     4 1916         1.6E9
COI_16A    1916 28         10E-12
*
* MODELS USED
*
*MODEL SNCM  VSWITCH RON=1 ROFF=500001 VON=9 VOFF=-44)
*MODEL SPCM  VSWITCH RON=450000 ROFF=1 VON=41 VOFF=-6.5)
*MODEL SBASE VSWITCH RON=11 ROFF=3500 VON=28 VOFF=-10)
*MODEL SMAINP VSWITCH RON=650001 ROFF=19 VON=32 VOFF=0)
*MODEL SMAINN VSWITCH RON=700001 ROFF=7 VON=28.5 VOFF=0)
*MODEL Sdemux VSWITCH RON=1 ROFF=1E12 VON=2.0 VOFF=1.4)
.MODEL DClamp D(IS=1E-15 IBV=1E-13)
*MODEL SLEAK VSWITCH RON=750E9 ROFF=150E9 VON=-15 VOFF=15)
.ENDS
*INCLUDE AD8.LIB
*******
*SYM=AD406
*SRC=ADG426B;ADG426B;Multiplexors;Analog Devices;8:1 Analog Mux
* ADG426B SPICE Macro-model                10/95  Rev. D
*                                           WF / ADSC
*
* Revision History: NONE
*
*       NOTE: This model was setup with Maximum leakage currents
*               at +85C for ADG426 
*              2. The digital address latches are not implemented.
*
* Copyright 1995 by Analog Devices  Inc.
*
* Node assignments
* 19 - S1  20 - S2  21 - S3  22 - S4  23 - S5  24 - S6  25 - S7
* 26 - S8  11 - S9 10 - S10  9 - S11  8 - S12  7 - S13  6 - S14
* 5 - S15  4 - S16  14 - A3  15 - A2  16 - A1  17 - A0  18 - EN
* 28 - D  1 - VDD  12 - GND  27 - VSS
*                    
.SUBCKT ADG426B 19 20 21 22 23 24 25 26 11 10 9 8 7 6 5 4 14 15 16 17 18 28 1 12 27
*
* DEMUX SWITCHES S1-16 ---> D)
*
*     First Section is for control line A0
*          All nodes in this section are in the 30's unless
*          they are I/O nodes
*
E_A0_2    200 12  17 12    1
E_A0_1     30 40 201 40   -1
R_A0_1    200 201         1000
C_A0_X2   201 12          100E-12

V_AX_1     40  12          1.6

xS_A0_16     4 31 201 12   Sdemux {RON=1 ROFF=1E12 VON=2.0 VOFF=1.4}
xS_A0_15     5 31 30  12   Sdemux {RON=1 ROFF=1E12 VON=2.0 VOFF=1.4}
xS_A0_14     6 32 201 12   Sdemux {RON=1 ROFF=1E12 VON=2.0 VOFF=1.4}
xS_A0_13     7 32 30  12   Sdemux {RON=1 ROFF=1E12 VON=2.0 VOFF=1.4}
xS_A0_12     8 33 201 12   Sdemux {RON=1 ROFF=1E12 VON=2.0 VOFF=1.4}
xS_A0_11     9 33 30  12   Sdemux {RON=1 ROFF=1E12 VON=2.0 VOFF=1.4}
xS_A0_10    10 34 201 12   Sdemux {RON=1 ROFF=1E12 VON=2.0 VOFF=1.4}
xS_A0_9     11 34 30  12   Sdemux {RON=1 ROFF=1E12 VON=2.0 VOFF=1.4}
xS_A0_8     26 35 201 12   Sdemux {RON=1 ROFF=1E12 VON=2.0 VOFF=1.4}
xS_A0_7     25 35 30  12   Sdemux {RON=1 ROFF=1E12 VON=2.0 VOFF=1.4}
xS_A0_6     24 36 201 12   Sdemux {RON=1 ROFF=1E12 VON=2.0 VOFF=1.4}
xS_A0_5     23 36 30  12   Sdemux {RON=1 ROFF=1E12 VON=2.0 VOFF=1.4} 
xS_A0_4     22 37 201 12   Sdemux {RON=1 ROFF=1E12 VON=2.0 VOFF=1.4}
xS_A0_3     21 37 30  12   Sdemux {RON=1 ROFF=1E12 VON=2.0 VOFF=1.4}
xS_A0_2     20 38 201 12   Sdemux {RON=1 ROFF=1E12 VON=2.0 VOFF=1.4}
xS_A0_1     19 38 30  12   Sdemux {RON=1 ROFF=1E12 VON=2.0 VOFF=1.4}

C_A0_X1     17 12          4E-12
C_A0_D      17 39          4E-12

*          Input capacitances

C_A0_1     19  12          8E-12
C_A0_2     20  12         8E-12
C_A0_3     21  12         8E-12
C_A0_4     22  12         8E-12
C_A0_5     23  12         8E-12
C_A0_6     24  12         8E-12
C_A0_7     25  12         8E-12