**********
*SRC=ALS00A;ALS00A;TTL;ALS Series;I/O Only
*SYM=ALSDEV
*DWG=C:\MODELS\DIGITAL\TTL\ALS\SUBCKTS\ALS00A.DWG
.SUBCKT ALS00A  6 7 3 8 {LIN=6.1N CIN=1.17P LOUT=2.9N COUT=1.03P }
*                in vcc gnd out
X2 1 7 3 4 ALOUT8M
LIN 6 5 {LIN}
CIN 5 0 {CIN}
LOUT 4 8 {LOUT}
COUT 4 0 {COUT}
X1 5 7 3 1 ALPNPIN
.ENDS
*INCLUDE ALS.LIB
**********
*SRC=ALS151;ALS151;TTL;ALS Series;I/O Only
*SYM=ALSDEV
*DWG=C:\MODELS\DIGITAL\TTL\ALS\SUBCKTS\ALS151.DWG
.SUBCKT ALS151  12 10 11 7 {LIN=6.1N CIN=1.17P LOUT=2.9N COUT=1.03P }
*                in vcc gnd out
X2 1 10 11 4 ALOUT24M
LOUT 4 7 {LOUT}
COUT 4 0 {COUT}
LIN 12 8 {LIN}
CIN 8 0 {CIN}
X1 8 10 11 1 ALPNPIN
.ENDS
*INCLUDE ALS.LIB
**********
*SRC=ALS240A-1;ALS240A1;TTL;ALS Series;I/O Only
*SYM=ALSDEV
*DWG=C:\MODELS\DIGITAL\TTL\ALS\SUBCKTS\ALS240A1.DWG
.SUBCKT ALS240A1  10 7 2 8 {LIN=6.1N CIN=1.17P LOUT=2.9N COUT=1.03P }
*                in vcc gnd out
X2 3 7 2 4 ALOUT48M
LOUT 4 8 {LOUT}
COUT 4 0 {COUT}
LIN 10 1 {LIN}
CIN 1 0 {CIN}
X1 1 7 2 3 ALPNPIN
.ENDS
*INCLUDE ALS.LIB
**********
*SYM=FINOUT
*DWG=C:\MODELS\DIGITAL\TTL\FAST\SUBCKTS\FPNPIN.DWG
.SUBCKT FPNPIN  5 2 7 1
*               in vcc gnd out
XQ2 3 4 1 HS10SB
XD1 1 5 7 HSDS0406
X1 2 3 2 RBAS9 {RES=10K}
XD2 7 5 7 HSDS2080
XR2 1 7 2 RIMP6 {RES=20K}
Q3 7 5 4 HSPNP
XR1 2 4 2 RBAS9 {RES=10K}
.ENDS
**********
*SYM=ALSINOUT
*DWG=C:\SPICE\SN\SUBCKTS\TTL\ALS\ALPNPIN.DWG
.SUBCKT ALPNPIN  5 4 1 3
*                in vcc gnd out
X1 3 2 2 HS6SB
X2 4 2 4 RIMP6 {RES=60K}
X3 4 2 4 RIMP6 {RES=40K}
XD1 3 5 1 HSDS0406
XD2 1 5 1 HSDS2080
Q1 1 5 2 HSPNP
.ENDS
**********
*SYM=ALSINOUT
*DWG=C:\SPICE\SN\SUBCKTS\TTL\ALS\ALBPNPIN.DWG
.SUBCKT ALBPNPIN  5 4 1 3
*                 in vcc gnd out
X1 3 2 2 HS6SB
X2 4 2 4 RIMP6 {RES=20K}
X3 4 2 4 RIMP6 {RES=40K}
X4 3 1 4 RIMP9 {RES=60K}
XD1 3 5 1 HSDS0406
XD2 1 5 1 HSDS2080
Q1 1 5 2 HSPNP
.ENDS
**********
*SYM=ALSINOUT
*DWG=C:\MODELS\DIGITAL\TTL\ALS\SUBCKTS\ALOUT4M.DWG
.SUBCKT ALOUT4M  4 2 1 3
*                in vcc gnd out
XR1 2 9 2 RBAS9 {RES=2K}
X40 2 7 2 DN20 {RES=35}
XQ8 7 9 6 HS6SB
XD9 6 9 1 HSDS0614
X41 6 3 2 RIMP9 {RES=1K}
Q9 7 6 3 HS40
XD10 3 9 1 HSDS0614
XQ10 9 4 11 HS6SB
X42 11 10 2 RIMP6 {RES=4K}
XD11 10 1 1 HSDS1030
XD12 11 8 1 HSDS0406
XD13 8 6 1 HSDP1020
XD14 11 12 1 HSDS0406
XQ11 3 11 1 HS4M
Q12 12 8 1 HS6
XD15 1 3 1 HSDS2080
.ENDS
**********
*SYM=ALSINOUT
*DWG=C:\MODELS\DIGITAL\TTL\ALS\SUBCKTS\ALOUT4M.DWG
.SUBCKT ALOUT8M  4 2 1 3
*                in vcc gnd out
XR1 2 9 2 RBAS9 {RES=2K}
X40 2 7 2 DN20 {RES=35}
XQ8 7 9 6 HS6SB
XD9 6 9 1 HSDS0614
X41 6 3 2 RIMP9 {RES=1K}
Q9 7 6 3 HS40
XD10 3 9 1 HSDS0614
XQ10 9 4 11 HS6SB
X42 11 10 2 RIMP6 {RES=4K}
XD11 10 1 1 HSDS1030
XD12 11 8 1 HSDS0406
XD13 8 6 1 HSDP1020
XD14 11 12 1 HSDS0406
XQ11 3 11 1 HS4M
Q12 12 8 1 HS6
XD15 1 3 1 HSDS2080
.ENDS
**********
*SYM=FINOUT
*DWG=C:\MODELS\DIGITAL\TTL\ALS\SUBCKTS\ALO24CR.DWG
.SUBCKT ALO24CR  7 2 16 13
*                in vcc gnd out
Q1 8 14 13 HS60
XD2 2 1 16 HSDS2080
XR2 1 8 16 RDNBN {RES=20}
XQ2 8 6 14 HS8SB
XD3 14 6 16 HSDS0408
C1 6 8 0.1P
XR3 2 6 2 RBAS9 {RES=5K}
XQ3 6 5 10 HS14SB
XQ4 4 11 9 HS30SB
XR4 2 5 2 RBAS9 {RES=5K}
XQ5 5 7 10 HS14SB
XQ6 11 7 10 HS14SB
XR5 2 11 2 RBAS9 {RES=5K}
XR6 14 16 2 RIMP9 {RES=20K}
C2 11 13 0.1P
XQ7 13 9 16 HS24MOKY
XD4 16 13 16 HSDS2080
Q8 10 10 16 HS20
XR7 9 12 2 RBAS9 {RES=1K}
XD5 12 16 16 HSDS1030
XR8 9 16 2 RIMP9 {RES=10K}
XR1 2 4 2 RBAS9 {RES=4K}
.ENDS
**********
*SYM=FINOUT
*DWG=C:\MODELS\DIGITAL\TTL\ALS\SUBCKTS\ALOUT64M.DWG
.SUBCKT ALOUT64M  4 2 1 3
*                 in vcc gnd out
X2 5 6 7 HS12SB
X3 6 4 8 HS16SB
Q1 5 7 3 HS60
X4 3 8 1 HS55MOKY
Q2 13 12 1 HS6
X5 2 6 2 RBAS9 {RES=2K}
X6 11 5 1 RDNBN {RES=12}
X7 8 1 2 RBAS9 {RES=2K}
X8 7 10 2 RIMP9 {RES=1K}
XD9 2 11 1 HSDS2080
X9 1 3 1 HSDS2080
XD10 7 6 1 HSDS0614
XD11 8 12 1 HSDS0406
XD12 12 7 1 HSDP1020
XD13 8 13 1 HSDS0406
XD14 10 3 1 HSDS0614
.ENDS
**********
*SYM=FINOUT
*DWG=C:\MODELS\DIGITAL\TTL\ALS\SUBCKTS\ALO64CR.DWG
.SUBCKT ALO64CR  12 1 6 4
*                in vcc gnd out
Q1 2 3 4 HS60
X2 1 5 6 HSDS2080
X3 5 2 6 RDNBN {RES=12}
X4 2 7 3 HS12SB
X5 3 7 6 HSDS0614
C1 7 2 0.2P
X6 1 7 1 RBAS9 {RES=5K}
X7 7 8 9 HS10SB
X8 15 10 11 HS16SB
X9 1 8 1 RBAS9 {RES=5K}
X10 8 12 9 HS10SB
X11 10 12 9 HS10SB
X12 1 10 1 RBAS9 {RES=5K}
X13 3 6 1 RIMP9 {RES=20K}
C2 10 4 0.2P
X14 4 11 6 HS55MOKY
X15 6 4 6 HSDS2080
Q2 9 9 6 HS30
X16 11 6 1 RBAS9 {RES=500}
X18 11 6 1 RIMP9 {RES=10K}
X1 1 15 1 RBAS9 {RES=2K}
.ENDS
**********
*SYM=FINOUT
*DWG=C:\MODELS\DIGITAL\TTL\ALS\SUBCKTS\ALOUT48M.DWG
.SUBCKT ALOUT24M  4 2 1 3
*                 in vcc gnd out
X2 5 6 7 HS6SB
X3 6 4 8 HS16SB
Q1 5 7 3 HS60
X4 3 8 1 HS48MOKY
Q2 10 9 1 HS6
X5 2 6 2 RBAS6 {RES=3K}
X6 11 5 1 RDNBN {RES=12}
X7 8 13 2 RBAS9 {RES=2K}
X8 7 12 2 RIMP9 {RES=1K}
X9 2 11 1 HSDS2080
X10 1 3 1 HSDS2080
X11 7 6 1 HSDS0614
X12 8 9 1 HSDS0406
X13 9 7 1 HSDP1020
X14 8 10 1 HSDS0406
X15 12 3 1 HSDS0614
XD1 13 1 1 HSDS1030
.ENDS
**********
*SYM=FINOUT
*DWG=C:\MODELS\DIGITAL\TTL\ALS\SUBCKTS\ALOUT48M.DWG
.SUBCKT ALOUT48M  4 2 1 3
*                 in vcc gnd out
X2 5 6 7 HS6SB
X3 6 4 8 HS16SB
Q1 5 7 3 HS60
X4 3 8 1 HS48MOKY
Q2 10 9 1 HS6
X5 2 6 2 RBAS6 {RES=3K}
X6 11 5 1 RDNBN {RES=12}
X7 8 13 2 RBAS9 {RES=2K}
X8 7 12 2 RIMP9 {RES=1K}
X9 2 11 1 HSDS2080
X10 1 3 1 HSDS2080
X11 7 6 1 HSDS0614
X12 8 9 1 HSDS0406
X13 9 7 1 HSDP1020
X14 8 10 1 HSDS0406
X15 12 3 1 HSDS0614
XD1 13 1 1 HSDS1030
.ENDS
**********
*SYM=FOUTEN
*DWG=C:\MODELS\DIGITAL\TTL\ALS\SUBCKTS\ALO243SC.DWG
.SUBCKT ALO243SC  12 15 1 6 4
*                 in en vcc gnd out
Q1 2 3 4 HS60
X2 1 5 6 HSDS2080
X3 5 2 6 RDNBN {RES=20}
X4 2 7 3 HS8SB
X5 3 7 6 HSDS0408
C1 7 2 0.1P
X6 1 7 1 RBAS9 {RES=5K}
X7 7 8 9 HS14SB
X8 16 10 11 HS30SB
X9 1 8 1 RBAS9 {RES=5K}
X10 8 12 9 HS14SB
X11 10 12 9 HS14SB
X12 1 10 1 RBAS9 {RES=5K}
X13 3 6 1 RIMP9 {RES=20K}
C2 10 4 0.1P
X14 4 11 6 HS24MOKY
X15 6 4 6 HSDS2080
Q2 9 9 6 HS20
X16 11 14 1 RBAS9 {RES=1K}
X17 14 6 6 HSDS1030
X18 11 6 1 RIMP9 {RES=10K}
X19 10 15 6 HSDS1030
X20 7 15 6 HSDS1030
X1 1 16 1 RBAS9 {RES=4K}
.ENDS
**********
*SYM=FOUTEN
*DWG=C:\MODELS\DIGITAL\TTL\ALS\SUBCKTS\ALO643SC.DWG
.SUBCKT ALO643SC  12 15 1 6 4
*                 in en vcc gnd out
Q1 2 3 4 HS60
X2 1 5 6 HSDS2080
X3 5 2 6 RDNBN {RES=12}
X4 2 16 3 HS12SB
X5 3 16 6 HSDS0614
C1 16 2 0.2P
X6 1 16 1 RBAS9 {RES=5K}
X7 16 8 9 HS10SB
X8 14 10 11 HS16SB
X9 1 8 1 RBAS9 {RES=5K}
X10 8 12 9 HS10SB
X11 10 12 9 HS10SB
X12 1 10 1 RBAS9 {RES=5K}
X13 3 6 1 RIMP9 {RES=20K}
C2 10 4 0.2P
X14 4 11 6 HS55MOKY
X15 6 4 6 HSDS2080
Q2 9 9 6 HS30
X16 11 6 1 RBAS9 {RES=500}
X17 11 6 1 RIMP9 {RES=10K}
XD1 10 15 6 HSDS1030
XD2 16 15 6 HSDS1030
X1 1 14 1 RBAS9 {RES=2K}
.ENDS
**********
.SUBCKT H3S6X6BL  1 2 3 4
QP   1 2 3 MP
DS   4 2 DSUB; OFF
.MODEL MP  PNP  IS= 2.04E-17  BF= 3.41E+01  VAF= 1.96E+01  IKF= 1.58E-04
+  BR= 2.49E+00  VAR= 8.79E+00  IKR= 1.79E-04  RB= 2.62E+02  IRB= 2.69E-05
+  RBM= 1.19E+01  RE= 2.37E+01  RC= 1.50E+02  XTB= 9.99E-01  EG= 1.19E+00
+  XTI= 2.59E+00  CJE= 4.98E-14  VJE= 1.33E+00  MJE= 6.29E-01  TF= 1.09E-09
+  CJC= 2.88E-13  VJC= 5.45E-01  MJC= 2.46E-01  TR= 4.99E-09
.MODEL DSUB D(CJO= 1.31E-13  VJ= 7.10E-01  M= 4.43E-01)
.ENDS H3S6X6BL
*
**********
.MODEL HSPNP  PNP  IS= 1.37E-16  BF= 10.00E+01  VAF= 3.20E+01  IKF= 2.24E-02
+  BR= 1.94E+00  VAR= 2.15E+01  IKR= 3.03E-03  RB= 6.95E+02
+  RE= 1.29E+01  RC= 1.10E+02  XTB= 8.69E-01  EG= 1.18E+00
+  XTI= 1.50E+00  CJE= 1.51E-13  VJE= 7.44E-01  MJE= 4.84E-01  TF= 5.71E-10
+  CJC= 1.55E-13  VJC= 6.20E-01  MJC= 4.85E-01  TR= 5.71E-10  CJS=0.0
+  VJS=0.75  MJS=0.0
*
**********
.MODEL HSPNPL  PNP  IS= 2.35E-15  BF= 10.00E+01  VAF= 3.20E+01  IKF= 3.84E-01
+  BR= 1.94E+00   VAR= 2.15E+01  IKR= 3.03E-03  RB= 4.05E+01
+  RE= 7.53E-01  RC= 6.42E+00  XTB= 8.69E-01  EG= 1.18E+00
+  XTI= 1.50E+00  CJE= 2.59E-12  VJE= 7.44E-01  MJE= 4.84E-01  TF= 5.71E-10
+  CJC= 1.45E-12  VJC= 6.20E-01  MJC= 4.85E-01  TR= 5.71E-10  CJS=0.0
+  VJS=0.75  MJS=0.0
*
**********
.SUBCKT HSDKICK  1 2 3
DSKY 1 2  MDSKY
DPN 1 2  MDPN
DSUB 3 2 MSUB; OFF
.MODEL MDSKY D(IS= 1.52E-13  RS= 7.78E+01  N= 9.99E-01  CJO= 5.77E-15
+      VJ= 7.89E-01
+      M= 4.99E-01  EG= 7.99E-01  XTI= 4.00E+00)
.MODEL MDPN D(IS= 1.42E-18  RS= 2.39E+01  N= 9.99E-01  CJO= 4.59E-14
+      VJ= 7.44E-01
+      M= 4.83E-01  EG= 7.99E-01  XTI= 4.00E+00)
.MODEL MSUB D(CJO= 8.52E-14  VJ= 6.20E-01  M= 4.85E-01)
.ENDS HSDKICK
*
**********
.MODEL HT5  NPN  IS= 1.10E-17  BF= 1.45E+02  VAF= 1.32E+01  IKF= 3.15E-03
+  BR= 2.28E+01  VAR= 2.26E+00  IKR= 3.18E-04  RB= 3.24E+03  IRB= 4.33E-06
+  RBM= 2.40E+02  RE= 8.55E+00  RC= 6.93E+01  XTB= 1.50E+00  EG= 1.23E+00
+  XTI= 2.14E+00  CJE= 1.92E-14  VJE= 9.16E-01  MJE= 4.06E-01  TF= 8.51E-12
+  CJC= 1.54E-14  VJC= 8.33E-01  MJC= 2.73E-01  TR= 2.44E-10  CJS= 4.08E-14
+  VJS= 7.00E-01  MJS= 3.96E-01
*
**********
.MODEL HT6  NPN  IS= 1.43E-17  BF= 1.45E+02  VAF= 1.32E+01  IKF= 4.20E-03
+  BR= 2.34E+01  VAR= 2.26E+00  IKR= 4.25E-04  RB= 2.43E+03  IRB= 5.78E-06
+  RBM= 1.80E+02  RE= 6.41E+00  RC= 5.22E+01  XTB= 1.50E+00  EG= 1.23E+00
+  XTI= 2.14E+00  CJE= 2.43E-14  VJE= 9.16E-01  MJE= 4.06E-01  TF= 8.51E-12
+  CJC= 1.94E-14  VJC= 8.33E-01  MJC= 2.73E-01  TR= 2.38E-10  CJS= 4.44E-14
+  VJS= 7.00E-01  MJS= 3.96E-01
*
**********
.MODEL HT7  NPN  IS= 1.75E-17  BF= 1.45E+02  VAF= 1.32E+01  IKF= 5.25E-03
+  BR= 2.38E+01  VAR= 2.26E+00  IKR= 5.31E-04  RB= 1.94E+03  IRB= 7.23E-06
+  RBM= 1.44E+02  RE= 5.13E+00  RC= 4.19E+01  XTB= 1.50E+00  EG= 1.23E+00
+  XTI= 2.14E+00  CJE= 2.93E-14  VJE= 9.16E-01  MJE= 4.06E-01  TF= 8.51E-12
+  CJC= 2.35E-14  VJC= 8.33E-01  MJC= 2.73E-01  TR= 2.34E-10  CJS= 4.80E-14
+  VJS= 7.00E-01  MJS= 3.96E-01
*
**********
.MODEL HT8  NPN  IS= 2.08E-17  BF= 1.45E+02  VAF= 1.32E+01  IKF= 6.30E-03
+  BR= 2.41E+01  VAR= 2.26E+00  IKR= 6.37E-04  RB= 1.62E+03  IRB= 8.67E-06
+  RBM= 1.20E+02  RE= 4.27E+00  RC= 3.50E+01  XTB= 1.50E+00  EG= 1.23E+00
+  XTI= 2.14E+00  CJE= 3.44E-14  VJE= 9.16E-01  MJE= 4.06E-01  TF= 8.51E-12
+  CJC= 2.75E-14  VJC= 8.33E-01  MJC= 2.73E-01  TR= 2.32E-10  CJS= 5.17E-14
+  VJS= 7.00E-01  MJS= 3.96E-01
*
**********
.MODEL HT9  NPN  IS= 2.40E-17  BF= 1.45E+02  VAF= 1.32E+01  IKF= 7.35E-03
+  BR= 2.43E+01  VAR= 2.26E+00  IKR= 7.44E-04  RB= 1.38E+03  IRB= 1.01E-05
+  RBM= 1.03E+02  RE= 3.66E+00  RC= 3.00E+01  XTB= 1.50E+00  EG= 1.23E+00
+  XTI= 2.14E+00  CJE= 3.95E-14  VJE= 9.16E-01  MJE= 4.06E-01  TF= 8.51E-12
+  CJC= 3.16E-14  VJC= 8.33E-01  MJC= 2.73E-01  TR= 2.30E-10  CJS= 5.53E-14
+  VJS= 7.00E-01  MJS= 3.96E-01
*
**********
.MODEL HT10  NPN  IS= 2.73E-17  BF= 1.45E+02  VAF= 1.32E+01  IKF= 8.41E-03
+  BR= 2.44E+01  VAR= 2.26E+00  IKR= 8.50E-04  RB= 1.21E+03  IRB= 1.15E-05
+  RBM= 9.03E+01  RE= 3.20E+00  RC= 2.63E+01  XTB= 1.50E+00  EG= 1.23E+00
+  XTI= 2.14E+00  CJE= 4.46E-14  VJE= 9.16E-01  MJE= 4.06E-01  TF= 8.51E-12
+  CJC= 3.56E-14  VJC= 8.33E-01  MJC= 2.73E-01  TR= 2.28E-10  CJS= 5.89E-14
+  VJS= 7.00E-01  MJS= 3.96E-01
*
**********
.MODEL HT12  NPN  IS= 3.37E-17  BF= 1.45E+02  VAF= 1.32E+01  IKF= 1.05E-02
+  BR= 2.47E+01  VAR= 2.26E+00  IKR= 1.06E-03  RB= 9.72E+02  IRB= 1.44E-05
+  RBM= 7.22E+01  RE= 2.56E+00  RC= 2.11E+01  XTB= 1.50E+00  EG= 1.23E+00
+  XTI= 2.14E+00  CJE= 5.48E-14  VJE= 9.16E-01  MJE= 4.06E-01  TF= 8.51E-12
+  CJC= 4.37E-14  VJC= 8.33E-01  MJC= 2.73E-01  TR= 2.26E-10  CJS= 6.61E-14
+  VJS= 7.00E-01  MJS= 3.96E-01
*
**********
.MODEL HT14  NPN  IS= 4.02E-17  BF= 1.45E+02  VAF= 1.32E+01  IKF= 1.26E-02
+  BR= 2.48E+01  VAR= 2.26E+00  IKR= 1.27E-03  RB= 8.10E+02  IRB= 1.73E-05
+  RBM= 6.02E+01  RE= 2.13E+00  RC= 1.76E+01  XTB= 1.50E+00  EG= 1.23E+00
+  XTI= 2.14E+00  CJE= 6.50E-14  VJE= 9.16E-01  MJE= 4.06E-01  TF= 8.51E-12
+  CJC= 5.18E-14  VJC= 8.33E-01  MJC= 2.73E-01  TR= 2.25E-10  CJS= 7.33E-14
+  VJS= 7.00E-01  MJS= 3.96E-01
*
**********
.MODEL HT16  NPN  IS= 4.67E-17  BF= 1.45E+02  VAF= 1.32E+01  IKF= 1.47E-02
+  BR= 2.50E+01  VAR= 2.26E+00  IKR= 1.48E-03  RB= 6.94E+02  IRB= 2.02E-05
+  RBM= 5.16E+01  RE= 1.83E+00  RC= 1.51E+01  XTB= 1.50E+00  EG= 1.23E+00
+  XTI= 2.14E+00  CJE= 7.52E-14  VJE= 9.16E-01  MJE= 4.06E-01  TF= 8.51E-12
+  CJC= 5.99E-14  VJC= 8.33E-01  MJC= 2.73E-01  TR= 2.24E-10  CJS= 8.05E-14
+  VJS= 7.00E-01  MJS= 3.96E-01
*
**********
.MODEL HT18  NPN  IS= 5.32E-17  BF= 1.45E+02  VAF= 1.32E+01  IKF= 1.68E-02
+  BR= 2.50E+01  VAR= 2.26E+00  IKR= 1.69E-03  RB= 6.07E+02  IRB= 2.31E-05
+  RBM= 4.51E+01  RE= 1.60E+00  RC= 1.32E+01  XTB= 1.50E+00  EG= 1.23E+00
+  XTI= 2.14E+00  CJE= 8.54E-14  VJE= 9.16E-01  MJE= 4.06E-01  TF= 8.51E-12
+  CJC= 6.80E-14  VJC= 8.33E-01  MJC= 2.73E-01  TR= 2.23E-10  CJS= 8.77E-14
+  VJS= 7.00E-01  MJS= 3.96E-01
*
**********
.MODEL HT20  NPN  IS= 5.97E-17  BF= 1.45E+02  VAF= 1.32E+01  IKF= 1.89E-02
+  BR= 2.51E+01  VAR= 2.26E+00  IKR= 1.91E-03  RB= 5.40E+02  IRB= 2.60E-05
+  RBM= 4.01E+01  RE= 1.42E+00  RC= 1.17E+01  XTB= 1.50E+00  EG= 1.23E+00
+  XTI= 2.14E+00  CJE= 9.56E-14  VJE= 9.16E-01  MJE= 4.06E-01  TF= 8.51E-12
+  CJC= 7.61E-14  VJC= 8.33E-01  MJC= 2.73E-01  TR= 2.23E-10  CJS= 9.49E-14
+  VJS= 7.00E-01  MJS= 3.96E-01
*
**********
.MODEL HT5DB  NPN  IS= 1.10E-17  BF= 1.45E+02  VAF= 1.32E+01  IKF= 4.38E-03
+  BR= 1.27E+01  VAR= 2.26E+00  IKR= 4.42E-04  RB= 1.47E+03  IRB= 6.02E-06
+  RBM= 1.37E+02  RE= 8.55E+00  RC= 1.11E+02  XTB= 1.50E+00  EG= 1.23E+00
+  XTI= 2.14E+00  CJE= 1.92E-14  VJE= 9.16E-01  MJE= 4.06E-01  TF= 8.51E-12
+  CJC= 2.57E-14  VJC= 8.33E-01  MJC= 2.73E-01  TR= 4.18E-10  CJS= 5.08E-14
+  VJS= 7.00E-01  MJS= 3.96E-01
*
**********
.MODEL HT6DB  NPN  IS= 1.43E-17  BF= 1.45E+02  VAF= 1.32E+01  IKF= 5.63E-03
+  BR= 1.31E+01  VAR= 2.26E+00  IKR= 5.68E-04  RB= 1.10E+03  IRB= 7.74E-06
+  RBM= 1.03E+02  RE= 6.41E+00  RC= 8.36E+01  XTB= 1.50E+00  EG= 1.23E+00
+  XTI= 2.14E+00  CJE= 2.43E-14  VJE= 9.16E-01  MJE= 4.06E-01  TF= 8.51E-12
+  CJC= 3.23E-14  VJC= 8.33E-01  MJC= 2.73E-01  TR= 4.06E-10  CJS= 5.52E-14
+  VJS= 7.00E-01  MJS= 3.96E-01
*
**********
.MODEL HT7DB  NPN  IS= 1.75E-17  BF= 1.45E+02  VAF= 1.32E+01  IKF= 7.19E-03
+  BR= 1.34E+01  VAR= 2.26E+00  IKR= 7.26E-04  RB= 8.82E+02  IRB= 9.89E-06
+  RBM= 8.26E+01  RE= 5.13E+00  RC= 6.72E+01  XTB= 1.50E+00  EG= 1.23E+00
+  XTI= 2.14E+00  CJE= 2.93E-14  VJE= 9.16E-01  MJE= 4.06E-01  TF= 8.51E-12
+  CJC= 3.90E-14  VJC= 8.33E-01  MJC= 2.73E-01  TR= 3.98E-10  CJS= 5.96E-14
+  VJS= 7.00E-01  MJS= 3.96E-01
*
**********
.MODEL HT8DB  NPN  IS= 2.08E-17  BF= 1.45E+02  VAF= 1.32E+01  IKF= 8.44E-03
+  BR= 1.36E+01  VAR= 2.26E+00  IKR= 8.53E-04  RB= 7.35E+02  IRB= 1.16E-05
+  RBM= 6.88E+01  RE= 4.27E+00  RC= 5.59E+01  XTB= 1.50E+00  EG= 1.23E+00
+  XTI= 2.14E+00  CJE= 3.44E-14  VJE= 9.16E-01  MJE= 4.06E-01  TF= 8.51E-12
+  CJC= 4.56E-14  VJC= 8.33E-01  MJC= 2.73E-01  TR= 3.93E-10  CJS= 6.40E-14
+  VJS= 7.00E-01  MJS= 3.96E-01
*
**********
.MODEL HT9DB  NPN  IS= 2.40E-17  BF= 1.45E+02  VAF= 1.32E+01  IKF= 1.00E-02
+  BR= 1.37E+01  VAR= 2.26E+00  IKR= 1.01E-03  RB= 6.30E+02  IRB= 1.37E-05
+  RBM= 5.90E+01  RE= 3.66E+00  RC= 4.80E+01  XTB= 1.50E+00  EG= 1.23E+00
+  XTI= 2.14E+00  CJE= 3.95E-14  VJE= 9.16E-01  MJE= 4.06E-01  TF= 8.51E-12
+  CJC= 5.22E-14  VJC= 8.33E-01  MJC= 2.73E-01  TR= 3.89E-10  CJS= 6.84E-14
+  VJS= 7.00E-01  MJS= 3.96E-01
*
**********
.MODEL HT10DB  NPN  IS= 2.73E-17  BF= 1.45E+02  VAF= 1.32E+01  IKF= 1.12E-02
+  BR= 1.38E+01  VAR= 2.26E+00  IKR= 1.13E-03  RB= 5.51E+02  IRB= 1.54E-05
+  RBM= 5.16E+01  RE= 3.20E+00  RC= 4.20E+01  XTB= 1.50E+00  EG= 1.23E+00
+  XTI= 2.14E+00  CJE= 4.46E-14  VJE= 9.16E-01  MJE= 4.06E-01  TF= 8.51E-12
+  CJC= 5.88E-14  VJC= 8.33E-01  MJC= 2.73E-01  TR= 3.86E-10  CJS= 7.28E-14
+  VJS= 7.00E-01  MJS= 3.96E-01
*
**********
.MODEL HT12DB  NPN  IS= 3.37E-17  BF= 1.45E+02  VAF= 1.32E+01  IKF= 1.40E-02
+  BR= 1.40E+01  VAR= 2.26E+00  IKR= 1.42E-03  RB= 4.41E+02  IRB= 1.93E-05
+  RBM= 4.13E+01  RE= 2.56E+00  RC= 3.36E+01  XTB= 1.50E+00  EG= 1.23E+00
+  XTI= 2.14E+00  CJE= 5.48E-14  VJE= 9.16E-01  MJE= 4.06E-01  TF= 8.51E-12
+  CJC= 7.20E-14  VJC= 8.33E-01  MJC= 2.73E-01  TR= 3.82E-10  CJS= 8.15E-14
+  VJS= 7.00E-01  MJS= 3.96E-01
*
**********
.MODEL HT14DB  NPN  IS= 4.02E-17  BF= 1.45E+02  VAF= 1.32E+01  IKF= 1.68E-02
+  BR= 1.41E+01  VAR= 2.26E+00  IKR= 1.70E-03  RB= 3.67E+02  IRB= 2.32E-05
+  RBM= 3.44E+01  RE= 2.13E+00  RC= 2.80E+01  XTB= 1.50E+00  EG= 1.23E+00
+  XTI= 2.14E+00  CJE= 6.50E-14  VJE= 9.16E-01  MJE= 4.06E-01  TF= 8.51E-12
+  CJC= 8.53E-14  VJC= 8.33E-01  MJC= 2.73E-01  TR= 3.79E-10  CJS= 9.03E-14
+  VJS= 7.00E-01  MJS= 3.96E-01
*
**********
.MODEL HT16DB  NPN  IS= 4.67E-17  BF= 1.45E+02  VAF= 1.32E+01  IKF= 1.97E-02
+  BR= 1.42E+01  VAR= 2.26E+00  IKR= 1.99E-03  RB= 3.15E+02  IRB= 2.71E-05
+  RBM= 2.95E+01  RE= 1.83E+00  RC= 2.40E+01  XTB= 1.50E+00  EG= 1.23E+00
+  XTI= 2.14E+00  CJE= 7.52E-14  VJE= 9.16E-01  MJE= 4.06E-01  TF= 8.51E-12
+  CJC= 9.85E-14  VJC= 8.33E-01  MJC= 2.73E-01  TR= 3.77E-10  CJS= 9.91E-14
+  VJS= 7.00E-01  MJS= 3.96E-01
*
**********
.MODEL HT18DB  NPN  IS= 5.32E-17  BF= 1.45E+02  VAF= 1.32E+01  IKF= 2.25E-02
+  BR= 1.42E+01  VAR= 2.26E+00  IKR= 2.27E-03  RB= 2.75E+02  IRB= 3.09E-05
+  RBM= 2.58E+01  RE= 1.60E+00  RC= 2.10E+01  XTB= 1.50E+00  EG= 1.23E+00
+  XTI= 2.14E+00  CJE= 8.54E-14  VJE= 9.16E-01  MJE= 4.06E-01  TF= 8.51E-12
+  CJC= 1.11E-13  VJC= 8.33E-01  MJC= 2.73E-01  TR= 3.76E-10  CJS= 1.07E-13
+  VJS= 7.00E-01  MJS= 3.96E-01
*
**********
.MODEL HT20DB  NPN  IS= 5.97E-17  BF= 1.45E+02  VAF= 1.32E+01  IKF= 2.53E-02
+  BR= 1.43E+01  VAR= 2.26E+00  IKR= 2.55E-03  RB= 2.45E+02  IRB= 3.48E-05
+  RBM= 2.29E+01  RE= 1.42E+00  RC= 1.87E+01  XTB= 1.50E+00  EG= 1.23E+00
+  XTI= 2.14E+00  CJE= 9.56E-14  VJE= 9.16E-01  MJE= 4.06E-01  TF= 8.51E-12
+  CJC= 1.24E-13  VJC= 8.33E-01  MJC= 2.73E-01  TR= 3.74E-10  CJS= 1.16E-13
+  VJS= 7.00E-01  MJS= 3.96E-01
*
**********
.MODEL HT75DD  NPN  IS= 7.75E-16  BF= 1.45E+02  VAF= 1.12E+01  IKF= 3.09E-01
+  BR= 2.20E+01  VAR= 2.26E+00  IKR= 3.12E-02  RB= 3.55E+01  IRB= 4.25E-04
+  RBM= 2.54E+00  RE= 7.74E-02  RC= 2.36E+00  XTB= 1.50E+00  EG= 1.23E+00
+  XTI= 2.14E+00  CJE= 1.02E-12  VJE= 9.16E-01  MJE= 4.06E-01  TF= 9.28E-12
+  CJC= 1.09E-12  VJC= 8.33E-01  MJC= 2.73E-01  TR= 2.53E-10  CJS= 8.68E-13
+  VJS= 7.00E-01  MJS= 3.96E-01
*
**********
.SUBCKT HSDS0406  1 2 3
DDIO 1 2 MDIO
DSUB 3 2 MSUB; OFF
.MODEL MDIO D(IS= 1.52E-13  RS= 7.78E+01  N= 9.99E-01  CJO= 5.77E-15  VJ= 7.89E-01
+      M= 4.99E-01  EG= 7.99E-01  XTI= 4.00E+00)
.MODEL MSUB D(CJO= 2.63E-14  VJ= 6.20E-01  M= 4.85E-01)
.ENDS HSDS0406
*
**********
.SUBCKT HSDS0408  1 2 3
DDIO 1 2 MDIO
DSUB 3 2 MSUB; OFF
.MODEL MDIO D(IS= 2.28E-13  RS= 5.19E+01  N= 9.99E-01  CJO= 8.65E-15  VJ= 7.89E-01
+      M= 4.99E-01  EG= 7.99E-01  XTI= 4.00E+00)
.MODEL MSUB D(CJO= 3.14E-14  VJ= 6.20E-01  M= 4.85E-01)
.ENDS HSDS0408
*
**********
.SUBCKT HSDS0410  1 2 3
DDIO 1 2 MDIO
DSUB 3 2 MSUB; OFF
.MODEL MDIO D(IS= 3.05E-13  RS= 3.89E+01  N= 9.99E-01  CJO= 1.15E-14  VJ= 7.89E-01
+      M= 4.99E-01  EG= 7.99E-01  XTI= 4.00E+00)
.MODEL MSUB D(CJO= 3.64E-14  VJ= 6.20E-01  M= 4.85E-01)
.ENDS HSDS0410
*
**********
.SUBCKT HSDS0412  1 2 3
DDIO 1 2 MDIO
DSUB 3 2 MSUB; OFF
.MODEL MDIO D(IS= 3.81E-13  RS= 3.11E+01  N= 9.99E-01  CJO= 1.44E-14  VJ= 7.89E-01
+      M= 4.99E-01  EG= 7.99E-01  XTI= 4.00E+00)
.MODEL MSUB D(CJO= 4.14E-14  VJ= 6.20E-01  M= 4.85E-01)
.ENDS HSDS0412
*
**********
.SUBCKT HSDS0614  1 2 3
DDIO 1 2 MDIO
DSUB 3 2 MSUB; OFF
.MODEL MDIO D(IS= 7.63E-13  RS= 2.09E+01  N= 9.99E-01  CJO= 2.88E-14  VJ= 7.89E-01
+      M= 4.99E-01  EG= 7.99E-01  XTI= 4.00E+00)
.MODEL MSUB D(CJO= 5.24E-14  VJ= 6.20E-01  M= 4.85E-01)
.ENDS HSDS0614
*
**********
.SUBCKT HSDS0616  1 2 3
DDIO 1 2 MDIO
DSUB 3 2 MSUB; OFF
.MODEL MDIO D(IS= 8.90E-13  RS= 1.79E+01  N= 9.99E-01  CJO= 3.36E-14  VJ= 7.89E-01
+      M= 4.99E-01  EG= 7.99E-01  XTI= 4.00E+00)
.MODEL MSUB D(CJO= 5.81E-14  VJ= 6.20E-01  M= 4.85E-01)
.ENDS HSDS0616
*
**********
.SUBCKT HSDS0820  1 2 3
DDIO 1 2 MDIO
DSUB 3 2 MSUB; OFF
.MODEL MDIO D(IS= 1.60E-12  RS= 1.25E+01  N= 9.99E-01  CJO= 6.05E-14  VJ= 7.89E-01
+      M= 4.99E-01  EG= 7.99E-01  XTI= 4.00E+00)
.MODEL MSUB D(CJO= 7.73E-14  VJ= 6.20E-01  M= 4.85E-01)
.ENDS HSDS0820
*
**********
.SUBCKT HSDS1030  1 2 3
DDIO 1 2 MDIO
DSUB 3 2 MSUB; OFF
.MODEL MDIO D(IS= 3.20E-12  RS= 7.53E+00  N= 9.99E-01  CJO= 1.21E-13  VJ= 7.89E-01
+      M= 4.99E-01  EG= 7.99E-01  XTI= 4.00E+00)
.MODEL MSUB D(CJO= 1.19E-13  VJ= 6.20E-01  M= 4.85E-01)
.ENDS HSDS1030
*
**********
.SUBCKT HSDS1240  1 2 3
DDIO 1 2 MDIO
DSUB 3 2 MSUB; OFF
.MODEL MDIO D(IS= 5.31E-12  RS= 5.30E+00  N= 9.99E-01  CJO= 2.00E-13  VJ= 7.89E-01
+      M= 4.99E-01  EG= 7.99E-01  XTI= 4.00E+00)
.MODEL MSUB D(CJO= 1.68E-13  VJ= 6.20E-01  M= 4.85E-01)
.ENDS HSDS1240
*
**********
.SUBCKT HSDS1040  1 2 3
DDIO 1 2 MDIO
DSUB 3 2 MSUB; OFF
.MODEL MDIO D(IS= 4.34E-12  RS= 5.54E+00  N= 9.99E-01  CJO= 1.64E-13  VJ= 7.89E-01
+      M= 4.99E-01  EG= 7.99E-01  XTI= 4.00E+00)
.MODEL MSUB D(CJO= 1.54E-13  VJ= 6.20E-01  M= 4.85E-01)
.ENDS HSDS1040
*
**********
.SUBCKT HSDS2080  1 2 3
DDIO 1 2 MDIO
DSUB 3 2 MSUB; OFF
.MODEL MDIO D(IS= 1.88E-11  RS= 2.36E+00  N= 9.99E-01  CJO= 7.12E-13  VJ= 7.89E-01
+      M= 4.99E-01  EG= 7.99E-01  XTI= 4.00E+00)
.MODEL MSUB D(CJO= 4.27E-13  VJ= 6.20E-01  M= 4.85E-01)
.ENDS HSDS2080
*
**********
.SUBCKT LONG2X1753  1 2 3
DDIO 1 2 MDIO
DSUB 3 2 MSUB; OFF
.MODEL MDIO D(IS= 7.50E-11  RS= 1.90E-01  N= 9.99E-01  CJO= 2.67E-12  VJ= 7.86E-01
+      M= 4.99E-01  EG= 7.99E-01  XTI= 4.00E+00)
.MODEL MSUB D(CJO= 5.05E-12  VJ= 6.99E-01  M= 3.91E-01)
.ENDS LONG2X1753
*
**********
.MODEL HS6  NPN  IS= 1.95E-17  BF= 1.56E+02  VAF= 2.70E+01  IKF= 3.16E-03
+  BR= 4.48E+01  VAR= 1.91E+00  IKR= 4.28E-04  RB= 3.15E+03  IRB= 4.05E-06
+  RBM= 2.67E+02  RE= 3.31E+00  RC= 1.07E+02  XTB= 1.50E+00  EG= 1.23E+00
+  XTI= 2.14E+00  CJE= 2.11E-14  VJE= 8.50E-01  MJE= 4.82E-01  TF= 1.21E-11
+  CJC= 2.50E-14  VJC= 7.44E-01  MJC= 4.84E-01  TR= 6.67E-10  CJS= 5.26E-14
+  VJS= 6.20E-01  MJS= 4.85E-01
*
**********
.MODEL HS8  NPN  IS= 2.92E-17  BF= 1.56E+02  VAF= 2.70E+01  IKF= 4.75E-03
+  BR= 4.76E+01  VAR= 1.91E+00  IKR= 6.42E-04  RB= 2.09E+03  IRB= 6.07E-06
+  RBM= 1.78E+02  RE= 2.20E+00  RC= 7.28E+01  XTB= 1.50E+00  EG= 1.23E+00
+  XTI= 2.14E+00  CJE= 2.98E-14  VJE= 8.50E-01  MJE= 4.82E-01  TF= 1.17E-11
+  CJC= 3.54E-14  VJC= 7.44E-01  MJC= 4.84E-01  TR= 6.30E-10  CJS= 6.11E-14
+  VJS= 6.20E-01  MJS= 4.85E-01
*
**********
.MODEL HS10  NPN  IS= 3.90E-17  BF= 1.56E+02  VAF= 2.70E+01  IKF= 6.33E-03
+  BR= 4.92E+01  VAR= 1.91E+00  IKR= 8.56E-04  RB= 1.57E+03  IRB= 8.10E-06
+  RBM= 1.33E+02  RE= 1.65E+00  RC= 5.49E+01  XTB= 1.50E+00  EG= 1.23E+00
+  XTI= 2.14E+00  CJE= 3.85E-14  VJE= 8.50E-01  MJE= 4.82E-01  TF= 1.15E-11
+  CJC= 4.58E-14  VJC= 7.44E-01  MJC= 4.84E-01  TR= 6.11E-10  CJS= 6.96E-14
+  VJS= 6.20E-01  MJS= 4.85E-01
*
**********
.MODEL HS12  NPN  IS= 4.87E-17  BF= 1.56E+02  VAF= 2.70E+01  IKF= 7.91E-03
+  BR= 5.01E+01  VAR= 1.91E+00  IKR= 1.06E-03  RB= 1.25E+03  IRB= 1.01E-05
+  RBM= 1.07E+02  RE= 1.32E+00  RC= 4.40E+01  XTB= 1.50E+00  EG= 1.23E+00
+  XTI= 2.14E+00  CJE= 4.72E-14  VJE= 8.50E-01  MJE= 4.82E-01  TF= 1.14E-11
+  CJC= 5.62E-14  VJC= 7.44E-01  MJC= 4.84E-01  TR= 6.00E-10  CJS= 7.81E-14
+  VJS= 6.20E-01  MJS= 4.85E-01
*
**********
.MODEL HS14  NPN  IS= 5.85E-17  BF= 1.56E+02  VAF= 2.70E+01  IKF= 9.50E-03
+  BR= 5.08E+01  VAR= 1.91E+00  IKR= 1.28E-03  RB= 1.04E+03  IRB= 1.21E-05
+  RBM= 8.92E+01  RE= 1.10E+00  RC= 3.68E+01  XTB= 1.50E+00  EG= 1.23E+00
+  XTI= 2.14E+00  CJE= 5.59E-14  VJE= 8.50E-01  MJE= 4.82E-01  TF= 1.14E-11
+  CJC= 6.66E-14  VJC= 7.44E-01  MJC= 4.84E-01  TR= 5.92E-10  CJS= 8.66E-14
+  VJS= 6.20E-01  MJS= 4.85E-01
*
**********
.MODEL HS16  NPN  IS= 6.83E-17  BF= 1.56E+02  VAF= 2.70E+01  IKF= 1.10E-02
+  BR= 5.13E+01  VAR= 1.91E+00  IKR= 1.49E-03  RB= 9.00E+02  IRB= 1.41E-05
+  RBM= 7.65E+01  RE= 9.46E-01  RC= 3.16E+01  XTB= 1.50E+00  EG= 1.23E+00
+  XTI= 2.14E+00  CJE= 6.47E-14  VJE= 8.50E-01  MJE= 4.82E-01  TF= 1.13E-11
+  CJC= 7.70E-14  VJC= 7.44E-01  MJC= 4.84E-01  TR= 5.87E-10  CJS= 9.51E-14
+  VJS= 6.20E-01  MJS= 4.85E-01
*
**********
.MODEL HS20  NPN  IS= 8.78E-17  BF= 1.56E+02  VAF= 2.70E+01  IKF= 1.42E-02
+  BR= 4.82E+01  VAR= 1.91E+00  IKR= 1.92E-03  RB= 7.00E+02  IRB= 1.82E-05
+  RBM= 5.95E+01  RE= 7.36E-01  RC= 3.55E+01  XTB= 1.50E+00  EG= 1.23E+00
+  XTI= 2.14E+00  CJE= 8.21E-14  VJE= 8.50E-01  MJE= 4.82E-01  TF= 1.13E-11
+  CJC= 1.05E-13  VJC= 7.44E-01  MJC= 4.84E-01  TR= 6.28E-10  CJS= 1.14E-13
+  VJS= 6.20E-01  MJS= 4.85E-01
*
**********
.MODEL HS30  NPN  IS= 8.80E-17  BF= 1.74E+02  VAF= 2.22E+01  IKF= 2.20E-02
+  BR= 1.23E+01  VAR= 3.38E+00  IKR= 1.47E-03  RB= 3.60E+02  IRB= 2.53E-05
+  RBM= 2.92E+01  RE= 6.67E-01  RC= 1.13E+01  XTB= 1.50E+00  EG= 1.23E+00
+  XTI= 2.14E+00  CJE= 1.83E-13  VJE= 9.23E-01  MJE= 3.93E-01  TF= 1.09E-11
+  CJC= 1.43E-13  VJC= 8.29E-01  MJC= 2.79E-01  TR= 5.00E-10  CJS= 1.55E-13
+  VJS= 6.99E-01  MJS= 3.91E-01
*
**********
.MODEL HS40  NPN  IS= 1.85E-16  BF= 1.56E+02  VAF= 2.70E+01  IKF= 3.00E-02
+  BR= 5.13E+01  VAR= 1.91E+00  IKR= 4.06E-03  RB= 3.31E+02  IRB= 3.84E-05
+  RBM= 2.81E+01  RE= 3.48E-01  RC= 1.68E+01  XTB= 1.50E+00  EG= 1.23E+00
+  XTI= 2.14E+00  CJE= 1.69E-13  VJE= 8.50E-01  MJE= 4.82E-01  TF= 1.11E-11
+  CJC= 2.09E-13  VJC= 7.44E-01  MJC= 4.84E-01  TR= 5.87E-10  CJS= 1.96E-13
+  VJS= 6.20E-01  MJS= 4.85E-01
*
**********
.MODEL HS60  NPN  IS= 1.38E-16  BF= 1.74E+02  VAF= 1.89E+01  IKF= 4.52E-02
+  BR= 9.65E+00  VAR= 3.38E+00  IKR= 3.03E-03  RB= 1.58E+02  IRB= 5.18E-05
+  RBM= 1.42E+01  RE= 3.25E-01  RC= 5.54E+00  XTB= 1.50E+00  EG= 1.23E+00
+  XTI= 2.14E+00  CJE= 3.71E-13  VJE= 9.23E-01  MJE= 3.93E-01  TF= 1.41E-11
+  CJC= 2.90E-13  VJC= 8.29E-01  MJC= 2.80E-01  TR= 6.41E-10  CJS= 3.08E-13
+  VJS= 6.99E-01  MJS= 3.91E-01
*
**********
.SUBCKT HS6SB  1 2 3
QN   1 2 3 MTRN
DSCH   2 1 MSCH
.MODEL MTRN  NPN  IS= 1.36E-17  BF= 1.74E+02  VAF= 2.22E+01  IKF= 3.11E-03
+  BR= 7.20E+00  VAR= 3.38E+00  IKR= 2.08E-04  RB= 2.54E+03  IRB= 3.57E-06
+  RBM= 2.06E+02  RE= 4.71E+00  RC= 7.89E+01  XTB= 1.50E+00  EG= 1.23E+00
+  XTI= 2.14E+00  CJE= 3.07E-14  VJE= 9.23E-01  MJE= 3.93E-01  TF= 1.09E-11
+  CJC= 3.03E-14  VJC= 8.28E-01  MJC= 2.80E-01  TR= 7.01E-10  CJS= 6.12E-14
+  VJS= 6.99E-01  MJS= 3.91E-01
.MODEL MSCH D(IS= 1.41E-13  RS= 7.06E+01  N= 9.99E-01  CJO= 5.04E-15  VJ= 7.86E-01
+      M= 4.99E-01  EG= 7.99E-01  XTI= 4.00E+00)
.ENDS HS6SB
*
**********
.SUBCKT HS8SB  1 2 3
QN   1 2 3 MTRN
DSCH   2 1 MSCH
.MODEL MTRN  NPN  IS= 2.92E-17  BF= 1.56E+02  VAF= 2.70E+01  IKF= 4.75E-03
+  BR= 2.85E+01  VAR= 1.91E+00  IKR= 6.42E-04  RB= 2.09E+03  IRB= 6.07E-06
+  RBM= 1.78E+02  RE= 2.20E+00  RC= 7.28E+01  XTB= 1.50E+00  EG= 1.23E+00
+  XTI= 2.14E+00  CJE= 2.98E-14  VJE= 8.50E-01  MJE= 4.82E-01  TF= 1.17E-11
+  CJC= 4.58E-14  VJC= 7.44E-01  MJC= 4.84E-01  TR= 8.15E-10  CJS= 7.06E-14
+  VJS= 6.20E-01  MJS= 4.85E-01
.MODEL MSCH D(IS= 1.89E-13  RS= 7.35E+01  N= 9.99E-01  CJO= 7.15E-15  VJ= 7.89E-01
+      M= 4.99E-01  EG= 7.99E-01  XTI= 4.00E+00)
.ENDS HS8SB
*
**********
.SUBCKT HS10SB  1 2 3
QN   1 2 3 MTRN
DSCH   2 1 MSCH
.MODEL MTRN  NPN  IS= 2.58E-17  BF= 1.74E+02  VAF= 2.22E+01  IKF= 6.23E-03
+  BR= 7.35E+00  VAR= 3.38E+00  IKR= 4.18E-04  RB= 1.27E+03  IRB= 7.15E-06
+  RBM= 1.03E+02  RE= 2.35E+00  RC= 3.98E+01  XTB= 1.50E+00  EG= 1.23E+00
+  XTI= 2.14E+00  CJE= 5.60E-14  VJE= 9.23E-01  MJE= 3.93E-01  TF= 1.09E-11
+  CJC= 5.56E-14  VJC= 8.28E-01  MJC= 2.81E-01  TR= 6.79E-10  CJS= 8.04E-14
+  VJS= 6.99E-01  MJS= 3.91E-01
.MODEL MSCH D(IS= 2.83E-13  RS= 3.53E+01  N= 9.99E-01  CJO= 1.00E-14  VJ= 7.86E-01
+      M= 4.99E-01  EG= 7.99E-01  XTI= 4.00E+00)
.ENDS HS10SB
*
**********
.SUBCKT HS12SB  1 2 3
QN   1 2 3 MTRN
DSCH   2 1 MSCH
.MODEL MTRN  NPN  IS= 3.20E-17  BF= 1.74E+02  VAF= 2.22E+01  IKF= 7.79E-03
+  BR= 7.38E+00  VAR= 3.38E+00  IKR= 5.22E-04  RB= 1.01E+03  IRB= 8.94E-06
+  RBM= 8.27E+01  RE= 1.88E+00  RC= 3.19E+01  XTB= 1.50E+00  EG= 1.23E+00
+  XTI= 2.14E+00  CJE= 6.86E-14  VJE= 9.23E-01  MJE= 3.93E-01  TF= 1.09E-11
+  CJC= 6.83E-14  VJC= 8.28E-01  MJC= 2.81E-01  TR= 6.75E-10  CJS= 9.01E-14
+  VJS= 6.99E-01  MJS= 3.91E-01
.MODEL MSCH D(IS= 3.54E-13  RS= 2.82E+01  N= 9.99E-01  CJO= 1.25E-14  VJ= 7.86E-01
+      M= 4.99E-01  EG= 7.99E-01  XTI= 4.00E+00)
.ENDS HS12SB
*
**********
.SUBCKT HS14SB  1 2 3
QN   1 2 3 MTRN
DSCH   2 1 MSCH
.MODEL MTRN  NPN  IS= 5.85E-17  BF= 1.56E+02  VAF= 2.70E+01  IKF= 9.50E-03
+  BR= 2.99E+01  VAR= 1.91E+00  IKR= 1.28E-03  RB= 1.04E+03  IRB= 1.21E-05
+  RBM= 8.92E+01  RE= 1.10E+00  RC= 3.68E+01  XTB= 1.50E+00  EG= 1.23E+00
+  XTI= 2.14E+00  CJE= 5.59E-14  VJE= 8.50E-01  MJE= 4.82E-01  TF= 1.14E-11
+  CJC= 8.69E-14  VJC= 7.44E-01  MJC= 4.84E-01  TR= 7.73E-10  CJS= 9.98E-14
+  VJS= 6.20E-01  MJS= 4.85E-01
.MODEL MSCH D(IS= 3.78E-13  RS= 3.67E+01  N= 9.99E-01  CJO= 1.42E-14  VJ= 7.89E-01
+      M= 4.99E-01  EG= 7.99E-01  XTI= 4.00E+00)
.ENDS HS14SB
*
**********
.SUBCKT HS16SB  1 2 3
QN   1 2 3 MTRN
DSCH   2 1 MSCH
.MODEL MTRN  NPN  IS= 4.43E-17  BF= 1.74E+02  VAF= 2.22E+01  IKF= 1.09E-02
+  BR= 7.42E+00  VAR= 3.38E+00  IKR= 7.31E-04  RB= 7.28E+02  IRB= 1.25E-05
+  RBM= 5.90E+01  RE= 1.34E+00  RC= 2.28E+01  XTB= 1.50E+00  EG= 1.23E+00
+  XTI= 2.14E+00  CJE= 9.39E-14  VJE= 9.23E-01  MJE= 3.93E-01  TF= 1.09E-11
+  CJC= 9.36E-14  VJC= 8.27E-01  MJC= 2.81E-01  TR= 6.69E-10  CJS= 1.09E-13
+  VJS= 6.99E-01  MJS= 3.91E-01
.MODEL MSCH D(IS= 4.95E-13  RS= 2.01E+01  N= 9.99E-01  CJO= 1.76E-14  VJ= 7.86E-01
+      M= 4.99E-01  EG= 7.99E-01  XTI= 4.00E+00)
.ENDS HS16SB
*
**********
.SUBCKT HS20SB  1 2 3
QN   1 2 3 MTRN
DSCH   2 1 MSCH
.MODEL MTRN  NPN  IS= 5.65E-17  BF= 1.74E+02  VAF= 2.22E+01  IKF= 1.40E-02
+  BR= 7.44E+00  VAR= 3.38E+00  IKR= 9.40E-04  RB= 5.66E+02  IRB= 1.60E-05
+  RBM= 4.59E+01  RE= 1.04E+00  RC= 1.78E+01  XTB= 1.50E+00  EG= 1.23E+00
+  XTI= 2.14E+00  CJE= 1.19E-13  VJE= 9.23E-01  MJE= 3.93E-01  TF= 1.09E-11
+  CJC= 1.18E-13  VJC= 8.27E-01  MJC= 2.81E-01  TR= 6.66E-10  CJS= 1.28E-13
+  VJS= 6.99E-01  MJS= 3.91E-01
.MODEL MSCH D(IS= 6.37E-13  RS= 1.56E+01  N= 9.99E-01  CJO= 2.26E-14  VJ= 7.86E-01
+      M= 4.99E-01  EG= 7.99E-01  XTI= 4.00E+00)
.ENDS HS20SB
*
**********
.SUBCKT HS30SB  1 2 3
QN   1 2 3 MTRN
DSCH   2 1 MSCH
.MODEL MTRN  NPN  IS= 8.72E-17  BF= 1.74E+02  VAF= 2.22E+01  IKF= 2.18E-02
+  BR= 7.47E+00  VAR= 3.38E+00  IKR= 1.46E-03  RB= 3.64E+02  IRB= 2.50E-05