**********
*Copyright Intusoft 1997
*All Rights Reserved
**********
*SRC=Q2006LH4;Q2006LH4;TRIACS;TECCOR;ALTERNISTOR 200V 6A 
*SYM=TRIAC
.SUBCKT Q2006LH4  1  2  3
*     TERMINALS: MT2 G MT1
QN1  5 4 3  NOUT
QN2 11 6 7  NOUT
QP1 6 11 3  POUT
QP2  4 5 7  POUT
DF  4  5  DZ
DR  6 11  DZ
RF  4 6  20MEG
RT2 1 7  0.127
RH  7 6  117
RGP 8 3  14
RG  2 8  11.4
RS  8 4  153
DN  9 2  DIN
RN  9 3  11.5
GNN  6 7 9 3 17.7M
GNP  4 5 9 3 4.19M
.MODEL DIN  D (IS=224F)
.MODEL DZ   D (IS=224F N=1.5 IBV=10U BV=200)
.MODEL POUT PNP (IS=224F BF=5 BR=.1 CJE=703P TF=102U)
.MODEL NOUT NPN (IS=224F BF=20 BR=.1 CJE=703P CJC=141P TF=6.8U)
.ENDS
**********
*SRC=Q4006LH4;Q4006LH4;TRIACS;TECCOR;ALTERNISTOR 400V 6A 
*SYM=TRIAC
.SUBCKT Q4006LH4  1  2  3
*     TERMINALS: MT2 G MT1
QN1  5 4 3  NOUT
QN2 11 6 7  NOUT
QP1 6 11 3  POUT
QP2  4 5 7  POUT
DF  4  5  DZ
DR  6 11  DZ
RF  4 6  40MEG
RT2 1 7  0.127
RH  7 6  117
RGP 8 3  14
RG  2 8  11.4
RS  8 4  153
DN  9 2  DIN
RN  9 3  11.5
GNN  6 7 9 3 17.7M
GNP  4 5 9 3 4.19M
.MODEL DIN  D (IS=224F)
.MODEL DZ   D (IS=224F N=1.5 IBV=10U BV=400)
.MODEL POUT PNP (IS=224F BF=5 BR=.1 CJE=703P TF=102U)
.MODEL NOUT NPN (IS=224F BF=20 BR=.1 CJE=703P CJC=141P TF=6.8U)
.ENDS
**********
*SRC=Q5006LH4;Q5006LH4;TRIACS;TECCOR;ALTERNISTOR 500V 6A 
*SYM=TRIAC
.SUBCKT Q5006LH4  1  2  3
*     TERMINALS: MT2 G MT1
QN1  5 4 3  NOUT
QN2 11 6 7  NOUT
QP1 6 11 3  POUT
QP2  4 5 7  POUT
DF  4  5  DZ
DR  6 11  DZ
RF  4 6  50MEG
RT2 1 7  0.127
RH  7 6  117
RGP 8 3  14
RG  2 8  11.4
RS  8 4  153
DN  9 2  DIN
RN  9 3  11.5
GNN  6 7 9 3 17.7M
GNP  4 5 9 3 4.19M
.MODEL DIN  D (IS=224F)
.MODEL DZ   D (IS=224F N=1.5 IBV=10U BV=500)
.MODEL POUT PNP (IS=224F BF=5 BR=.1 CJE=703P TF=102U)
.MODEL NOUT NPN (IS=224F BF=20 BR=.1 CJE=703P CJC=141P TF=6.8U)
.ENDS
**********
*SRC=Q6006LH4;Q6006LH4;TRIACS;TECCOR;ALTERNISTOR 600V 6A 
*SYM=TRIAC
.SUBCKT Q6006LH4  1  2  3
*     TERMINALS: MT2 G MT1
QN1  5 4 3  NOUT
QN2 11 6 7  NOUT
QP1 6 11 3  POUT
QP2  4 5 7  POUT
DF  4  5  DZ
DR  6 11  DZ
RF  4 6  60MEG
RT2 1 7  0.127
RH  7 6  117
RGP 8 3  14
RG  2 8  11.4
RS  8 4  153
DN  9 2  DIN
RN  9 3  11.5
GNN  6 7 9 3 17.7M
GNP  4 5 9 3 4.19M
.MODEL DIN  D (IS=224F)
.MODEL DZ   D (IS=224F N=1.5 IBV=10U BV=600)
.MODEL POUT PNP (IS=224F BF=5 BR=.1 CJE=703P TF=102U)
.MODEL NOUT NPN (IS=224F BF=20 BR=.1 CJE=703P CJC=141P TF=6.8U)
.ENDS
**********
*SRC=Q7006LH4;Q7006LH4;TRIACS;TECCOR;ALTERNISTOR 700V 6A 
*SYM=TRIAC
.SUBCKT Q7006LH4  1  2  3
*     TERMINALS: MT2 G MT1
QN1  5 4 3  NOUT
QN2 11 6 7  NOUT
QP1 6 11 3  POUT
QP2  4 5 7  POUT
DF  4  5  DZ
DR  6 11  DZ
RF  4 6  70MEG
RT2 1 7  0.127
RH  7 6  117
RGP 8 3  14
RG  2 8  11.4
RS  8 4  153
DN  9 2  DIN
RN  9 3  11.5
GNN  6 7 9 3 17.7M
GNP  4 5 9 3 4.19M
.MODEL DIN  D (IS=224F)
.MODEL DZ   D (IS=224F N=1.5 IBV=10U BV=700)
.MODEL POUT PNP (IS=224F BF=5 BR=.1 CJE=703P TF=102U)
.MODEL NOUT NPN (IS=224F BF=20 BR=.1 CJE=703P CJC=141P TF=6.8U)
.ENDS
**********
*SRC=Q8006LH4;Q8006LH4;TRIACS;TECCOR;ALTERNISTOR 800V 6A 
*SYM=TRIAC
.SUBCKT Q8006LH4  1  2  3
*     TERMINALS: MT2 G MT1
QN1  5 4 3  NOUT
QN2 11 6 7  NOUT
QP1 6 11 3  POUT
QP2  4 5 7  POUT
DF  4  5  DZ
DR  6 11  DZ
RF  4 6  80MEG
RT2 1 7  0.127
RH  7 6  117
RGP 8 3  14
RG  2 8  11.4
RS  8 4  153
DN  9 2  DIN
RN  9 3  11.5
GNN  6 7 9 3 17.7M
GNP  4 5 9 3 4.19M
.MODEL DIN  D (IS=224F)
.MODEL DZ   D (IS=224F N=1.5 IBV=10U BV=800)
.MODEL POUT PNP (IS=224F BF=5 BR=.1 CJE=703P TF=102U)
.MODEL NOUT NPN (IS=224F BF=20 BR=.1 CJE=703P CJC=141P TF=6.8U)
.ENDS
**********
*SRC=Q2008LH4;Q2008LH4;TRIACS;TECCOR;ALTERNISTOR 200V 8A 
*SYM=TRIAC
.SUBCKT Q2008LH4  1  2  3
*     TERMINALS: MT2 G MT1
QN1  5 4 3  NOUT
QN2 11 6 7  NOUT
QP1 6 11 3  POUT
QP2  4 5 7  POUT
DF  4  5  DZ
DR  6 11  DZ
RF  4 6  20MEG
RT2 1 7  95M
RH  7 6  87.5
RGP 8 3  14
RG  2 8  11.4
RS  8 4  111
DN  9 2  DIN
RN  9 3  11.5
GNN  6 7 9 3 23.6M
GNP  4 5 9 3 5.69M
.MODEL DIN  D (IS=298F)
.MODEL DZ   D (IS=298F N=1.5 IBV=10U BV=200)
.MODEL POUT PNP (IS=298F BF=5 BR=.1 CJE=750P TF=102U)
.MODEL NOUT NPN (IS=298F BF=20 BR=.1 CJE=750P CJC=150P TF=6.8U)
.ENDS
**********
*SRC=Q4008LH4;Q4008LH4;TRIACS;TECCOR;ALTERNISTOR 400V 8A 
*SYM=TRIAC
.SUBCKT Q4008LH4  1  2  3
*     TERMINALS: MT2 G MT1
QN1  5 4 3  NOUT
QN2 11 6 7  NOUT
QP1 6 11 3  POUT
QP2  4 5 7  POUT
DF  4  5  DZ
DR  6 11  DZ
RF  4 6  40MEG
RT2 1 7  95M
RH  7 6  87.5
RGP 8 3  14
RG  2 8  11.4
RS  8 4  111
DN  9 2  DIN
RN  9 3  11.5
GNN  6 7 9 3 23.6M
GNP  4 5 9 3 5.69M
.MODEL DIN  D (IS=298F)
.MODEL DZ   D (IS=298F N=1.5 IBV=10U BV=400)
.MODEL POUT PNP (IS=298F BF=5 BR=.1 CJE=750P TF=102U)
.MODEL NOUT NPN (IS=298F BF=20 BR=.1 CJE=750P CJC=150P TF=6.8U)
.ENDS
**********
*SRC=Q5008LH4;Q5008LH4;TRIACS;TECCOR;ALTERNISTOR 500V 8A 
*SYM=TRIAC
.SUBCKT Q5008LH4  1  2  3
*     TERMINALS: MT2 G MT1
QN1  5 4 3  NOUT
QN2 11 6 7  NOUT
QP1 6 11 3  POUT
QP2  4 5 7  POUT
DF  4  5  DZ
DR  6 11  DZ
RF  4 6  50MEG
RT2 1 7  95M
RH  7 6  87.5
RGP 8 3  14
RG  2 8  11.4
RS  8 4  111
DN  9 2  DIN
RN  9 3  11.5
GNN  6 7 9 3 23.6M
GNP  4 5 9 3 5.69M
.MODEL DIN  D (IS=298F)
.MODEL DZ   D (IS=298F N=1.5 IBV=10U BV=500)
.MODEL POUT PNP (IS=298F BF=5 BR=.1 CJE=750P TF=102U)
.MODEL NOUT NPN (IS=298F BF=20 BR=.1 CJE=750P CJC=150P TF=6.8U)
.ENDS
**********
*SRC=Q6008LH4;Q6008LH4;TRIACS;TECCOR;ALTERNISTOR 600V 8A 
*SYM=TRIAC
.SUBCKT Q6008LH4  1  2  3
*     TERMINALS: MT2 G MT1
QN1  5 4 3  NOUT
QN2 11 6 7  NOUT
QP1 6 11 3  POUT
QP2  4 5 7  POUT
DF  4  5  DZ
DR  6 11  DZ
RF  4 6  60MEG
RT2 1 7  95M
RH  7 6  87.5
RGP 8 3  14
RG  2 8  11.4
RS  8 4  111
DN  9 2  DIN
RN  9 3  11.5
GNN  6 7 9 3 23.6M
GNP  4 5 9 3 5.69M
.MODEL DIN  D (IS=298F)
.MODEL DZ   D (IS=298F N=1.5 IBV=10U BV=600)
.MODEL POUT PNP (IS=298F BF=5 BR=.1 CJE=750P TF=102U)
.MODEL NOUT NPN (IS=298F BF=20 BR=.1 CJE=750P CJC=150P TF=6.8U)
.ENDS
**********
*SRC=Q7008LH4;Q7008LH4;TRIACS;TECCOR;ALTERNISTOR 700V 8A 
*SYM=TRIAC
.SUBCKT Q7008LH4  1  2  3
*     TERMINALS: MT2 G MT1
QN1  5 4 3  NOUT
QN2 11 6 7  NOUT
QP1 6 11 3  POUT
QP2  4 5 7  POUT
DF  4  5  DZ
DR  6 11  DZ
RF  4 6  70MEG
RT2 1 7  95M
RH  7 6  87.5
RGP 8 3  14
RG  2 8  11.4
RS  8 4  111
DN  9 2  DIN
RN  9 3  11.5
GNN  6 7 9 3 23.6M
GNP  4 5 9 3 5.69M
.MODEL DIN  D (IS=298F)
.MODEL DZ   D (IS=298F N=1.5 IBV=10U BV=700)
.MODEL POUT PNP (IS=298F BF=5 BR=.1 CJE=750P TF=102U)
.MODEL NOUT NPN (IS=298F BF=20 BR=.1 CJE=750P CJC=150P TF=6.8U)
.ENDS
**********
*SRC=Q8008LH4;Q8008LH4;TRIACS;TECCOR;ALTERNISTOR 800V 8A 
*SYM=TRIAC
.SUBCKT Q8008LH4  1  2  3
*     TERMINALS: MT2 G MT1
QN1  5 4 3  NOUT
QN2 11 6 7  NOUT
QP1 6 11 3  POUT
QP2  4 5 7  POUT
DF  4  5  DZ
DR  6 11  DZ
RF  4 6  80MEG
RT2 1 7  95M
RH  7 6  87.5
RGP 8 3  14
RG  2 8  11.4
RS  8 4  111
DN  9 2  DIN
RN  9 3  11.5
GNN  6 7 9 3 23.6M
GNP  4 5 9 3 5.69M
.MODEL DIN  D (IS=298F)
.MODEL DZ   D (IS=298F N=1.5 IBV=10U BV=800)
.MODEL POUT PNP (IS=298F BF=5 BR=.1 CJE=750P TF=102U)
.MODEL NOUT NPN (IS=298F BF=20 BR=.1 CJE=750P CJC=150P TF=6.8U)
.ENDS
**********
*SRC=Q2010LH5;Q2010LH5;TRIACS;TECCOR;ALTERNISTOR 200V 10A 
*SYM=TRIAC
.SUBCKT Q2010LH5  1  2  3
*     TERMINALS: MT2 G MT1
QN1  5 4 3  NOUT
QN2 11 6 7  NOUT
QP1 6 11 3  POUT
QP2  4 5 7  POUT
DF  4  5  DZ
DR  6 11  DZ
RF  4 6  20MEG
RT2 1 7  76M
RH  7 6  70
RGP 8 3  9.82
RG  2 8  7.98
RS  8 4  90.1
DN  9 2  DIN
RN  9 3  8.04
GNN  6 7 9 3 29.5M
GNP  4 5 9 3 7.05M
.MODEL DIN  D (IS=373F)
.MODEL DZ   D (IS=373F N=1.5 IBV=10U BV=200)
.MODEL POUT PNP (IS=373F BF=5 BR=.1 CJE=782P TF=102U)
.MODEL NOUT NPN (IS=373F BF=20 BR=.1 CJE=782P CJC=156P TF=6.8U)
.ENDS
**********
*SRC=Q4010LH5;Q4010LH5;TRIACS;TECCOR;ALTERNISTOR 400V 10A 
*SYM=TRIAC
.SUBCKT Q4010LH5  1  2  3
*     TERMINALS: MT2 G MT1
QN1  5 4 3  NOUT
QN2 11 6 7  NOUT
QP1 6 11 3  POUT
QP2  4 5 7  POUT
DF  4  5  DZ
DR  6 11  DZ
RF  4 6  40MEG
RT2 1 7  76M
RH  7 6  70
RGP 8 3  9.82
RG  2 8  7.98
RS  8 4  90.1
DN  9 2  DIN
RN  9 3  8.04
GNN  6 7 9 3 29.5M
GNP  4 5 9 3 7.05M
.MODEL DIN  D (IS=373F)
.MODEL DZ   D (IS=373F N=1.5 IBV=10U BV=400)
.MODEL POUT PNP (IS=373F BF=5 BR=.1 CJE=782P TF=102U)
.MODEL NOUT NPN (IS=373F BF=20 BR=.1 CJE=782P CJC=156P TF=6.8U)
.ENDS
**********
*SRC=Q5010LH5;Q5010LH5;TRIACS;TECCOR;ALTERNISTOR 500V 10A 
*SYM=TRIAC
.SUBCKT Q5010LH5  1  2  3
*     TERMINALS: MT2 G MT1
QN1  5 4 3  NOUT
QN2 11 6 7  NOUT
QP1 6 11 3  POUT
QP2  4 5 7  POUT
DF  4  5  DZ
DR  6 11  DZ
RF  4 6  50MEG
RT2 1 7  76M
RH  7 6  70
RGP 8 3  9.82
RG  2 8  7.98
RS  8 4  90.1
DN  9 2  DIN
RN  9 3  8.04
GNN  6 7 9 3 29.5M
GNP  4 5 9 3 7.05M
.MODEL DIN  D (IS=373F)
.MODEL DZ   D (IS=373F N=1.5 IBV=10U BV=500)
.MODEL POUT PNP (IS=373F BF=5 BR=.1 CJE=782P TF=102U)
.MODEL NOUT NPN (IS=373F BF=20 BR=.1 CJE=782P CJC=156P TF=6.8U)
.ENDS
**********
*SRC=Q6010LH5;Q6010LH5;TRIACS;TECCOR;ALTERNISTOR 600V 10A 
*SYM=TRIAC
.SUBCKT Q6010LH5  1  2  3
*     TERMINALS: MT2 G MT1
QN1  5 4 3  NOUT
QN2 11 6 7  NOUT
QP1 6 11 3  POUT
QP2  4 5 7  POUT
DF  4  5  DZ
DR  6 11  DZ
RF  4 6  60MEG
RT2 1 7  76M
RH  7 6  70
RGP 8 3  9.82
RG  2 8  7.98
RS  8 4  90.1
DN  9 2  DIN
RN  9 3  8.04
GNN  6 7 9 3 29.5M
GNP  4 5 9 3 7.05M
.MODEL DIN  D (IS=373F)
.MODEL DZ   D (IS=373F N=1.5 IBV=10U BV=600)
.MODEL POUT PNP (IS=373F BF=5 BR=.1 CJE=782P TF=102U)
.MODEL NOUT NPN (IS=373F BF=20 BR=.1 CJE=782P CJC=156P TF=6.8U)
.ENDS
**********
*SRC=Q7010LH5;Q7010LH5;TRIACS;TECCOR;ALTERNISTOR 700V 10A 
*SYM=TRIAC
.SUBCKT Q7010LH5  1  2  3
*     TERMINALS: MT2 G MT1
QN1  5 4 3  NOUT
QN2 11 6 7  NOUT
QP1 6 11 3  POUT
QP2  4 5 7  POUT
DF  4  5  DZ
DR  6 11  DZ
RF  4 6  70MEG
RT2 1 7  76M
RH  7 6  70
RGP 8 3  9.82
RG  2 8  7.98
RS  8 4  90.1
DN  9 2  DIN
RN  9 3  8.04
GNN  6 7 9 3 29.5M
GNP  4 5 9 3 7.05M
.MODEL DIN  D (IS=373F)
.MODEL DZ   D (IS=373F N=1.5 IBV=10U BV=700)
.MODEL POUT PNP (IS=373F BF=5 BR=.1 CJE=782P TF=102U)
.MODEL NOUT NPN (IS=373F BF=20 BR=.1 CJE=782P CJC=156P TF=6.8U)
.ENDS
**********
*SRC=Q8010LH5;Q8010LH5;TRIACS;TECCOR;ALTERNISTOR 800V 10A 
*SYM=TRIAC
.SUBCKT Q8010LH5  1  2  3
*     TERMINALS: MT2 G MT1
QN1  5 4 3  NOUT
QN2 11 6 7  NOUT
QP1 6 11 3  POUT
QP2  4 5 7  POUT
DF  4  5  DZ
DR  6 11  DZ
RF  4 6  80MEG
RT2 1 7  76M
RH  7 6  70
RGP 8 3  9.82
RG  2 8  7.98
RS  8 4  90.1
DN  9 2  DIN
RN  9 3  8.04
GNN  6 7 9 3 29.5M
GNP  4 5 9 3 7.05M
.MODEL DIN  D (IS=373F)
.MODEL DZ   D (IS=373F N=1.5 IBV=10U BV=800)
.MODEL POUT PNP (IS=373F BF=5 BR=.1 CJE=782P TF=102U)
.MODEL NOUT NPN (IS=373F BF=20 BR=.1 CJE=782P CJC=156P TF=6.8U)
.ENDS
**********
*SRC=Q2012LH5;Q2012LH5;TRIACS;TECCOR;ALTERNISTOR 200V 12A 
*SYM=TRIAC
.SUBCKT Q2012LH5  1  2  3
*     TERMINALS: MT2 G MT1
QN1  5 4 3  NOUT
QN2 11 6 7  NOUT
QP1 6 11 3  POUT
QP2  4 5 7  POUT
DF  4  5  DZ
DR  6 11  DZ
RF  4 6  20MEG
RT2 1 7  63.4M
RH  7 6  58.3
RGP 8 3  9.82
RG  2 8  7.98
RS  8 4  73.5
DN  9 2  DIN
RN  9 3  8.04
GNN  6 7 9 3 35.4M
GNP  4 5 9 3 8.56M
.MODEL DIN  D (IS=447F)
.MODEL DZ   D (IS=447F N=1.5 IBV=10U BV=200)
.MODEL POUT PNP (IS=447F BF=5 BR=.1 CJE=938P TF=102U)
.MODEL NOUT NPN (IS=447F BF=20 BR=.1 CJE=938P CJC=188P TF=6.8U)
.ENDS
**********
*SRC=Q4012LH5;Q4012LH5;TRIACS;TECCOR;ALTERNISTOR 400V 12A 
*SYM=TRIAC
.SUBCKT Q4012LH5  1  2  3
*     TERMINALS: MT2 G MT1
QN1  5 4 3  NOUT
QN2 11 6 7  NOUT
QP1 6 11 3  POUT
QP2  4 5 7  POUT
DF  4  5  DZ
DR  6 11  DZ
RF  4 6  40MEG
RT2 1 7  63.4M
RH  7 6  58.3
RGP 8 3  9.82
RG  2 8  7.98
RS  8 4  73.5
DN  9 2  DIN
RN  9 3  8.04
GNN  6 7 9 3 35.4M
GNP  4 5 9 3 8.56M
.MODEL DIN  D (IS=447F)
.MODEL DZ   D (IS=447F N=1.5 IBV=10U BV=400)
.MODEL POUT PNP (IS=447F BF=5 BR=.1 CJE=938P TF=102U)
.MODEL NOUT NPN (IS=447F BF=20 BR=.1 CJE=938P CJC=188P TF=6.8U)
.ENDS
**********
*SRC=Q5012LH5;Q5012LH5;TRIACS;TECCOR;ALTERNISTOR 500V 12A 
*SYM=TRIAC
.SUBCKT Q5012LH5  1  2  3
*     TERMINALS: MT2 G MT1
QN1  5 4 3  NOUT
QN2 11 6 7  NOUT
QP1 6 11 3  POUT
QP2  4 5 7  POUT
DF  4  5  DZ
DR  6 11  DZ
RF  4 6  50MEG
RT2 1 7  63.4M
RH  7 6  58.3
RGP 8 3  9.82
RG  2 8  7.98
RS  8 4  73.5
DN  9 2  DIN
RN  9 3  8.04
GNN  6 7 9 3 35.4M
GNP  4 5 9 3 8.56M
.MODEL DIN  D (IS=447F)
.MODEL DZ   D (IS=447F N=1.5 IBV=10U BV=500)
.MODEL POUT PNP (IS=447F BF=5 BR=.1 CJE=938P TF=102U)
.MODEL NOUT NPN (IS=447F BF=20 BR=.1 CJE=938P CJC=188P TF=6.8U)
.ENDS
**********
*SRC=Q6012LH5;Q6012LH5;TRIACS;TECCOR;ALTERNISTOR 600V 12A 
*SYM=TRIAC
.SUBCKT Q6012LH5  1  2  3
*     TERMINALS: MT2 G MT1
QN1  5 4 3  NOUT
QN2 11 6 7  NOUT
QP1 6 11 3  POUT
QP2  4 5 7  POUT
DF  4  5  DZ
DR  6 11  DZ
RF  4 6  60MEG
RT2 1 7  63.4M
RH  7 6  58.3
RGP 8 3  9.82
RG  2 8  7.98
RS  8 4  73.5
DN  9 2  DIN
RN  9 3  8.04
GNN  6 7 9 3 35.4M
GNP  4 5 9 3 8.56M
.MODEL DIN  D (IS=447F)
.MODEL DZ   D (IS=447F N=1.5 IBV=10U BV=600)
.MODEL POUT PNP (IS=447F BF=5 BR=.1 CJE=938P TF=102U)
.MODEL NOUT NPN (IS=447F BF=20 BR=.1 CJE=938P CJC=188P TF=6.8U)
.ENDS
**********
*SRC=Q7012LH5;Q7012LH5;TRIACS;TECCOR;ALTERNISTOR 700V 12A 
*SYM=TRIAC
.SUBCKT Q7012LH5  1  2  3
*     TERMINALS: MT2 G MT1
QN1  5 4 3  NOUT
QN2 11 6 7  NOUT
QP1 6 11 3  POUT
QP2  4 5 7  POUT
DF  4  5  DZ
DR  6 11  DZ
RF  4 6  70MEG
RT2 1 7  63.4M
RH  7 6  58.3
RGP 8 3  9.82
RG  2 8  7.98
RS  8 4  73.5
DN  9 2  DIN
RN  9 3  8.04
GNN  6 7 9 3 35.4M
GNP  4 5 9 3 8.56M
.MODEL DIN  D (IS=447F)
.MODEL DZ   D (IS=447F N=1.5 IBV=10U BV=700)
.MODEL POUT PNP (IS=447F BF=5 BR=.1 CJE=938P TF=102U)
.MODEL NOUT NPN (IS=447F BF=20 BR=.1 CJE=938P CJC=188P TF=6.8U)
.ENDS
**********
*SRC=Q8012LH5;Q8012LH5;TRIACS;TECCOR;ALTERNISTOR 800V 12A 
*SYM=TRIAC
.SUBCKT Q8012LH5  1  2  3
*     TERMINALS: MT2 G MT1
QN1  5 4 3  NOUT
QN2 11 6 7  NOUT
QP1 6 11 3  POUT
QP2  4 5 7  POUT
DF  4  5  DZ
DR  6 11  DZ
RF  4 6  80MEG
RT2 1 7  63.4M
RH  7 6  58.3
RGP 8 3  9.82
RG  2 8  7.98
RS  8 4  73.5
DN  9 2  DIN
RN  9 3  8.04
GNN  6 7 9 3 35.4M
GNP  4 5 9 3 8.56M
.MODEL DIN  D (IS=447F)
.MODEL DZ   D (IS=447F N=1.5 IBV=10U BV=800)
.MODEL POUT PNP (IS=447F BF=5 BR=.1 CJE=938P TF=102U)
.MODEL NOUT NPN (IS=447F BF=20 BR=.1 CJE=938P CJC=188P TF=6.8U)
.ENDS
**********
*SRC=Q2015L6;Q2015L6;TRIACS;TECCOR;ALTERNISTOR 200V 15A 
*SYM=TRIAC
.SUBCKT Q2015L6   1  2  3
*     TERMINALS: MT2 G MT1
QN1  5 4 3  NOUT
QN2 11 6 7  NOUT
QP1 6 11 3  POUT
QP2  4 5 7  POUT
DF  4  5  DZ
DR  6 11  DZ
RF  4 6  4MEG
RT2 1 7  50.7M
RH  7 6  46.6
RGP 8 3  6.14
RG  2 8  4.99
RS  8 4  60.5
DN  9 2  DIN
RN  9 3  5.03
GNN  6 7 9 3 44.2M
GNP  4 5 9 3 10.5M
.MODEL DIN  D (IS=559F)
.MODEL DZ   D (IS=559F N=1.5 IBV=50U BV=200)
.MODEL POUT PNP (IS=559F BF=5 BR=.1 CJE=1.17N TF=128U)
.MODEL NOUT NPN (IS=559F BF=20 BR=.1 CJE=1.17N CJC=235P TF=8.5U)
.ENDS
**********
*SRC=Q4015L6;Q4015L6;TRIACS;TECCOR;ALTERNISTOR 400V 15A 
*SYM=TRIAC
.SUBCKT Q4015L6   1  2  3
*     TERMINALS: MT2 G MT1
QN1  5 4 3  NOUT
QN2 11 6 7  NOUT
QP1 6 11 3  POUT
QP2  4 5 7  POUT
DF  4  5  DZ
DR  6 11  DZ
RF  4 6  8MEG
RT2 1 7  50.7M
RH  7 6  46.6
RGP 8 3  6.14
RG  2 8  4.99
RS  8 4  60.5
DN  9 2  DIN
RN  9 3  5.03
GNN  6 7 9 3 44.2M
GNP  4 5 9 3 10.5M
.MODEL DIN  D (IS=559F)
.MODEL DZ   D (IS=559F N=1.5 IBV=50U BV=400)
.MODEL POUT PNP (IS=559F BF=5 BR=.1 CJE=1.17N TF=128U)
.MODEL NOUT NPN (IS=559F BF=20 BR=.1 CJE=1.17N CJC=235P TF=8.5U)
.ENDS
**********
*SRC=Q5015L6;Q5015L6;TRIACS;TECCOR;ALTERNISTOR 500V 15A 
*SYM=TRIAC
.SUBCKT Q5015L6   1  2  3
*     TERMINALS: MT2 G MT1
QN1  5 4 3  NOUT
QN2 11 6 7  NOUT
QP1 6 11 3  POUT
QP2  4 5 7  POUT
DF  4  5  DZ
DR  6 11  DZ
RF  4 6  10MEG
RT2 1 7  50.7M
RH  7 6  46.6
RGP 8 3  6.14
RG  2 8  4.99
RS  8 4  60.5
DN  9 2  DIN
RN  9 3  5.03
GNN  6 7 9 3 44.2M
GNP  4 5 9 3 10.5M
.MODEL DIN  D (IS=559F)
.MODEL DZ   D (IS=559F N=1.5 IBV=50U BV=500)
.MODEL POUT PNP (IS=559F BF=5 BR=.1 CJE=1.17N TF=128U)
.MODEL NOUT NPN (IS=559F BF=20 BR=.1 CJE=1.17N CJC=235P TF=8.5U)
.ENDS
**********
*SRC=Q6015L6;Q6015L6;TRIACS;TECCOR;ALTERNISTOR 600V 15A 
*SYM=TRIAC
.SUBCKT Q6015L6   1  2  3
*     TERMINALS: MT2 G MT1
QN1  5 4 3  NOUT
QN2 11 6 7  NOUT
QP1 6 11 3  POUT
QP2  4 5 7  POUT
DF  4  5  DZ
DR  6 11  DZ
RF  4 6  12MEG
RT2 1 7  50.7M
RH  7 6  46.6
RGP 8 3  6.14
RG  2 8  4.99
RS  8 4  60.5
DN  9 2  DIN
RN  9 3  5.03
GNN  6 7 9 3 44.2M
GNP  4 5 9 3 10.5M
.MODEL DIN  D (IS=559F)
.MODEL DZ   D (IS=559F N=1.5 IBV=50U BV=600)
.MODEL POUT PNP (IS=559F BF=5 BR=.1 CJE=1.17N TF=128U)
.MODEL NOUT NPN (IS=559F BF=20 BR=.1 CJE=1.17N CJC=235P TF=8.5U)
.ENDS
**********
*SRC=Q7015L6;Q7015L6;TRIACS;TECCOR;ALTERNISTOR 700V 15A 
*SYM=TRIAC
.SUBCKT Q7015L6   1  2  3
*     TERMINALS: MT2 G MT1
QN1  5 4 3  NOUT
QN2 11 6 7  NOUT
QP1 6 11 3  POUT
QP2  4 5 7  POUT
DF  4  5  DZ
DR  6 11  DZ
RF  4 6  7MEG
RT2 1 7  50.7M
RH  7 6  46.6
RGP 8 3  6.14
RG  2 8  4.99
RS  8 4  60.5
DN  9 2  DIN
RN  9 3  5.03
GNN  6 7 9 3 44.2M
GNP  4 5 9 3 10.5M
.MODEL DIN  D (IS=559F)
.MODEL DZ   D (IS=559F N=1.5 IBV=100U BV=700)
.MODEL POUT PNP (IS=559F BF=5 BR=.1 CJE=1.17N TF=128U)
.MODEL NOUT NPN (IS=559F BF=20 BR=.1 CJE=1.17N CJC=235P TF=8.5U)
.ENDS
**********
*SRC=Q8015L6;Q8015L6;TRIACS;TECCOR;ALTERNISTOR 800V 15A 
*SYM=TRIAC
.SUBCKT Q8015L6   1  2  3
*     TERMINALS: MT2 G MT1
QN1  5 4 3  NOUT
QN2 11 6 7  NOUT
QP1 6 11 3  POUT
QP2  4 5 7  POUT
DF  4  5  DZ
DR  6 11  DZ
RF  4 6  8MEG
RT2 1 7  50.7M
RH  7 6  46.6
RGP 8 3  6.14
RG  2 8  4.99
RS  8 4  60.5
DN  9 2  DIN
RN  9 3  5.03
GNN  6 7 9 3 44.2M
GNP  4 5 9 3 10.5M
.MODEL DIN  D (IS=559F)
.MODEL DZ   D (IS=559F N=1.5 IBV=100U BV=800)
.MODEL POUT PNP (IS=559F BF=5 BR=.1 CJE=1.17N TF=128U)
.MODEL NOUT NPN (IS=559F BF=20 BR=.1 CJE=1.17N CJC=235P TF=8.5U)
.ENDS
**********
*SRC=Q2025K6;Q2025K6;TRIACS;TECCOR;ALTERNISTOR 200V 25A 
*SYM=TRIAC
.SUBCKT Q2025K6   1  2  3
*     TERMINALS: MT2 G MT1
QN1  5 4 3  NOUT
QN2 11 6 7  NOUT
QP1 6 11 3  POUT
QP2  4 5 7  POUT
DF  4  5  DZ
DR  6 11  DZ
RF  4 6  4MEG
RT2 1 7  38.4M
RH  7 6  28
RGP 8 3  6.14
RG  2 8  4.99
RS  8 4  33.8
DN  9 2  DIN
RN  9 3  5.03
GNN  6 7 9 3 73.7M
GNP  4 5 9 3 18.2M
.MODEL DIN  D (IS=932F)
.MODEL DZ   D (IS=932F N=1.5 IBV=50U BV=200)
.MODEL POUT PNP (IS=932F BF=5 BR=.1 CJE=1.95N TF=128U)
.MODEL NOUT NPN (IS=932F BF=20 BR=.1 CJE=1.95N CJC=391P TF=8.5U)
.ENDS
**********
*SRC=Q4025K6;Q4025K6;TRIACS;TECCOR;ALTERNISTOR 400V 25A 
*SYM=TRIAC
.SUBCKT Q4025K6   1  2  3
*     TERMINALS: MT2 G MT1
QN1  5 4 3  NOUT
QN2 11 6 7  NOUT
QP1 6 11 3  POUT
QP2  4 5 7  POUT
DF  4  5  DZ
DR  6 11  DZ
RF  4 6  8MEG
RT2 1 7  38.4M
RH  7 6  28
RGP 8 3  6.14
RG  2 8  4.99
RS  8 4  33.8
DN  9 2  DIN
RN  9 3  5.03
GNN  6 7 9 3 73.7M
GNP  4 5 9 3 18.2M
.MODEL DIN  D (IS=932F)
.MODEL DZ   D (IS=932F N=1.5 IBV=50U BV=400)
.MODEL POUT PNP (IS=932F BF=5 BR=.1 CJE=1.95N TF=128U)
.MODEL NOUT NPN (IS=932F BF=20 BR=.1 CJE=1.95N CJC=391P TF=8.5U)
.ENDS
**********
*SRC=Q5025K6;Q5025K6;TRIACS;TECCOR;ALTERNISTOR 500V 25A 
*SYM=TRIAC
.SUBCKT Q5025K6   1  2  3
*     TERMINALS: MT2 G MT1
QN1  5 4 3  NOUT
QN2 11 6 7  NOUT
QP1 6 11 3  POUT
QP2  4 5 7  POUT
DF  4  5  DZ
DR  6 11  DZ
RF  4 6  10MEG
RT2 1 7  38.4M
RH  7 6  28
RGP 8 3  6.14
RG  2 8  4.99
RS  8 4  33.8
DN  9 2  DIN
RN  9 3  5.03
GNN  6 7 9 3 73.7M
GNP  4 5 9 3 18.2M
.MODEL DIN  D (IS=932F)
.MODEL DZ   D (IS=932F N=1.5 IBV=50U BV=500)
.MODEL POUT PNP (IS=932F BF=5 BR=.1 CJE=1.95N TF=128U)
.MODEL NOUT NPN (IS=932F BF=20 BR=.1 CJE=1.95N CJC=391P TF=8.5U)
.ENDS
**********
*SRC=Q6025K6;Q6025K6;TRIACS;TECCOR;ALTERNISTOR 600V 25A 
*SYM=TRIAC
.SUBCKT Q6025K6   1  2  3
*     TERMINALS: MT2 G MT1
QN1  5 4 3  NOUT
QN2 11 6 7  NOUT
QP1 6 11 3  POUT
QP2  4 5 7  POUT
DF  4  5  DZ
DR  6 11  DZ
RF  4 6  12MEG
RT2 1 7  38.4M
RH  7 6  28
RGP 8 3  6.14
RG  2 8  4.99
RS  8 4  33.8
DN  9 2  DIN
RN  9 3  5.03
GNN  6 7 9 3 73.7M
GNP  4 5 9 3 18.2M
.MODEL DIN  D (IS=932F)
.MODEL DZ   D (IS=932F N=1.5 IBV=50U BV=600)
.MODEL POUT PNP (IS=932F BF=5 BR=.1 CJE=1.95N TF=128U)
.MODEL NOUT NPN (IS=932F BF=20 BR=.1 CJE=1.95N CJC=391P TF=8.5U)
.ENDS
**********
*SRC=Q7025K6;Q7025K6;TRIACS;TECCOR;ALTERNISTOR 700V 25A 
*SYM=TRIAC
.SUBCKT Q7025K6   1  2  3
*     TERMINALS: MT2 G MT1
QN1  5 4 3  NOUT
QN2 11 6 7  NOUT
QP1 6 11 3  POUT
QP2  4 5 7  POUT
DF  4  5  DZ
DR  6 11  DZ
RF  4 6  7MEG
RT2 1 7  38.4M
RH  7 6  28
RGP 8 3  6.14
RG  2 8  4.99
RS  8 4  33.8
DN  9 2  DIN
RN  9 3  5.03
GNN  6 7 9 3 73.7M
GNP  4 5 9 3 18.2M
.MODEL DIN  D (IS=932F)
.MODEL DZ   D (IS=932F N=1.5 IBV=100U BV=700)
.MODEL POUT PNP (IS=932F BF=5 BR=.1 CJE=1.95N TF=128U)
.MODEL NOUT NPN (IS=932F BF=20 BR=.1 CJE=1.95N CJC=391P TF=8.5U)
.ENDS
**********
*SRC=Q8025K6;Q8025K6;TRIACS;TECCOR;ALTERNISTOR 800V 25A 
*SYM=TRIAC
.SUBCKT Q8025K6   1  2  3
*     TERMINALS: MT2 G MT1
QN1  5 4 3  NOUT
QN2 11 6 7  NOUT
QP1 6 11 3  POUT
QP2  4 5 7  POUT
DF  4  5  DZ
DR  6 11  DZ
RF  4 6  8MEG
RT2 1 7  38.4M
RH  7 6  28
RGP 8 3  6.14
RG  2 8  4.99
RS  8 4  33.8
DN  9 2  DIN
RN  9 3  5.03
GNN  6 7 9 3 73.7M
GNP  4 5 9 3 18.2M
.MODEL DIN  D (IS=932F)
.MODEL DZ   D (IS=932F N=1.5 IBV=100U BV=800)
.MODEL POUT PNP (IS=932F BF=5 BR=.1 CJE=1.95N TF=128U)
.MODEL NOUT NPN (IS=932F BF=20 BR=.1 CJE=1.95N CJC=391P TF=8.5U)
.ENDS
**********
*SRC=Q2040K7;Q2040K7;TRIACS;TECCOR;ALTERNISTOR 200V 40A 
*SYM=TRIAC
.SUBCKT Q2040K7   1  2  3
*     TERMINALS: MT2 G MT1
QN1  5 4 3  NOUT
QN2 11 6 7  NOUT
QP1 6 11 3  POUT
QP2  4 5 7  POUT
DF  4  5  DZ
DR  6 11  DZ
RF  4 6  1MEG
RT2 1 7  20.3M
RH  7 6  17.5
RGP 8 3  4.91
RG  2 8  3.99
RS  8 4  20.1
DN  9 2  DIN
RN  9 3  4.02
GNN  6 7 9 3 0.118
GNP  4 5 9 3 29.9M
.MODEL DIN  D (IS=1.49P)
.MODEL DZ   D (IS=1.49P N=1.5 IBV=200U BV=200)
.MODEL POUT PNP (IS=1.49P BF=5 BR=.1 CJE=1.88N TF=128U)
.MODEL NOUT NPN (IS=1.49P BF=20 BR=.1 CJE=1.88N CJC=375P TF=8.5U)
.ENDS
**********
*SRC=Q4040K7;Q4040K7;TRIACS;TECCOR;ALTERNISTOR 400V 40A 
*SYM=TRIAC
.SUBCKT Q4040K7   1  2  3
*     TERMINALS: MT2 G MT1
QN1  5 4 3  NOUT
QN2 11 6 7  NOUT
QP1 6 11 3  POUT
QP2  4 5 7  POUT
DF  4  5  DZ
DR  6 11  DZ
RF  4 6  2MEG
RT2 1 7  20.3M
RH  7 6  17.5
RGP 8 3  4.91
RG  2 8  3.99
RS  8 4  20.1
DN  9 2  DIN
RN  9 3  4.02
GNN  6 7 9 3 0.118
GNP  4 5 9 3 29.9M
.MODEL DIN  D (IS=1.49P)
.MODEL DZ   D (IS=1.49P N=1.5 IBV=200U BV=400)
.MODEL POUT PNP (IS=1.49P BF=5 BR=.1 CJE=1.88N TF=128U)
.MODEL NOUT NPN (IS=1.49P BF=20 BR=.1 CJE=1.88N CJC=375P TF=8.5U)
.ENDS
**********
*SRC=Q5040K7;Q5040K7;TRIACS;TECCOR;ALTERNISTOR 500V 40A 
*SYM=TRIAC
.SUBCKT Q5040K7   1  2  3
*     TERMINALS: MT2 G MT1
QN1  5 4 3  NOUT
QN2 11 6 7  NOUT
QP1 6 11 3  POUT
QP2  4 5 7  POUT
DF  4  5  DZ
DR  6 11  DZ
RF  4 6  2.5MEG
RT2 1 7  20.3M
RH  7 6  17.5
RGP 8 3  4.91
RG  2 8  3.99
RS  8 4  20.1
DN  9 2  DIN
RN  9 3  4.02
GNN  6 7 9 3 0.118
GNP  4 5 9 3 29.9M
.MODEL DIN  D (IS=1.49P)
.MODEL DZ   D (IS=1.49P N=1.5 IBV=200U BV=500)
.MODEL POUT PNP (IS=1.49P BF=5 BR=.1 CJE=1.88N TF=128U)
.MODEL NOUT NPN (IS=1.49P BF=20 BR=.1 CJE=1.88N CJC=375P TF=8.5U)
.ENDS
**********
*SRC=Q6040K7;Q6040K7;TRIACS;TECCOR;ALTERNISTOR 600V 40A 
*SYM=TRIAC
.SUBCKT Q6040K7   1  2  3
*     TERMINALS: MT2 G MT1
QN1  5 4 3  NOUT
QN2 11 6 7  NOUT
QP1 6 11 3  POUT
QP2  4 5 7  POUT
DF  4  5  DZ
DR  6 11  DZ
RF  4 6  3MEG
RT2 1 7  20.3M
RH  7 6  17.5
RGP 8 3  4.91
RG  2 8  3.99
RS  8 4  20.1
DN  9 2  DIN
RN  9 3  4.02
GNN  6 7 9 3 0.118
GNP  4 5 9 3 29.9M
.MODEL DIN  D (IS=1.49P)
.MODEL DZ   D (IS=1.49P N=1.5 IBV=200U BV=600)
.MODEL POUT PNP (IS=1.49P BF=5 BR=.1 CJE=1.88N TF=128U)
.MODEL NOUT NPN (IS=1.49P BF=20 BR=.1 CJE=1.88N CJC=375P TF=8.5U)
.ENDS
**********
*SRC=Q7040K7;Q7040K7;TRIACS;TECCOR;ALTERNISTOR 700V 40A 
*SYM=TRIAC
.SUBCKT Q7040K7   1  2  3
*     TERMINALS: MT2 G MT1
QN1  5 4 3  NOUT
QN2 11 6 7  NOUT
QP1 6 11 3  POUT
QP2  4 5 7  POUT
DF  4  5  DZ
DR  6 11  DZ
RF  4 6  3.5MEG
RT2 1 7  20.3M
RH  7 6  17.5
RGP 8 3  4.91
RG  2 8  3.99
RS  8 4  20.1
DN  9 2  DIN
RN  9 3  4.02
GNN  6 7 9 3 0.118
GNP  4 5 9 3 29.9M
.MODEL DIN  D (IS=1.49P)
.MODEL DZ   D (IS=1.49P N=1.5 IBV=200U BV=700)
.MODEL POUT PNP (IS=1.49P BF=5 BR=.1 CJE=1.88N TF=128U)
.MODEL NOUT NPN (IS=1.49P BF=20 BR=.1 CJE=1.88N CJC=375P TF=8.5U)
.ENDS
**********
*SRC=Q8040K7;Q8040K7;TRIACS;TECCOR;ALTERNISTOR 800V 40A 
*SYM=TRIAC
.SUBCKT Q8040K7   1  2  3
*     TERMINALS: MT2 G MT1
QN1  5 4 3  NOUT
QN2 11 6 7  NOUT
QP1 6 11 3  POUT
QP2  4 5 7  POUT
DF  4  5  DZ
DR  6 11  DZ
RF  4 6  4MEG
RT2 1 7  20.3M
RH  7 6  17.5
RGP 8 3  4.91
RG  2 8  3.99
RS  8 4  20.1
DN  9 2  DIN
RN  9 3  4.02
GNN  6 7 9 3 0.118
GNP  4 5 9 3 29.9M
.MODEL DIN  D (IS=1.49P)
.MODEL DZ   D (IS=1.49P N=1.5 IBV=200U BV=800)
.MODEL POUT PNP (IS=1.49P BF=5 BR=.1 CJE=1.88N TF=128U)
.MODEL NOUT NPN (IS=1.49P BF=20 BR=.1 CJE=1.88N CJC=375P TF=8.5U)
.ENDS
**********
