**********
* Intusoft - Philips (Signetics) SPICE Modeling Series 
* ALVT SPICE Models
* 29 July 1998
* 
* Source: Intusoft P.O. Box 710 San Pedro, Ca. 90733-0710
*         Phone: (310) 833-0710 FAX: (310) 833-9658
* 
* INTUSOFT hereby grants the users of these macromodels a
* non-exclusive, nontransferrable license to use this macromodel under
* the following conditions:
*  
*  These models are provided as is.  INTUSOFT makes no warranty, either
*  expressed or implied about the suitability or fitness of these models
*  for any particular purpose.  In no event will INTUSOFT be liable for
*  special, collateral, incidental or consequential damages in
*  connection with or arising out of the use of these macromodels.  It
*  should be remembered that models are a simplification of the actual
*  circuit.
*  
*  INTUSOFT reserves the right to change these macromodels without
*  prior notice.
* 
* ************************
*  IsSpice Models        *
*  Nominal Case(s)       *
* ************************
* *********
* The fastest, high-output drive family is the recently-introduced ALVT family. 
* It is operating from 2.5-volt to 3.6-volt power supply levels with full I/O compatibility 
* up to 5.5 volts. ALVT features a family of 16-bit wide functions, available in 48- and 
* 56-pin SSOP and TSSOP packages. It provides a 20% speed advantage over LVT16. 
* At the same time, output buffers provide 64 mA - capable of handling heavily-loaded 
* backplanes or buses.
**********
*SRC=ALVTS240;ALVTS240;BiCMOS;ALVT;I/O Only
*SYM=ALVT
.SUBCKT ALVTS240 ExtVcc ExtGnd OEbar Ain Yout  
* OEbar, pin 1; Ain, pin 47; Yout, pin 2 
C59 $G_IntVcc $G_IntGnd 4E-12  
C53 103 $G_IntGnd 1E-12
XESD_103 103 $G_IntGnd ESDZENER  
C51 104 $G_IntGnd 1E-12 
XESD_104 104 $G_IntGnd ESDZENER  
C55 105 $G_IntGnd 1E-12
XESD_105 105 $G_IntGnd ESDZENER   
X0 105 106 SUB29  
X1 107 108 103 SUB26  
X2 105 SUB12  
X3 109 110 SUB27  
X4 109 110 108 107 106 104 SUB28  
X5 OEbar Yout ExtGnd ExtVcc ExtGnd ExtGnd ExtVcc ExtGnd ExtGnd ExtVcc ExtGnd ExtGnd ExtVcc ExtGnd Ain 103 104 $G_IntGnd $G_IntVcc $G_IntGnd $G_IntGnd $G_IntVcc $G_IntGnd $G_IntGnd $G_IntVcc $G_IntGnd $G_IntGnd $G_IntVcc $G_IntGnd 105 pks48_244 
.ENDS ALVTS240
*INCLUDE ALVTNOM.LIB
**********
*SRC=ALVTS2240;ALVTS2240;BiCMOS;ALVT;I/O Only
*SYM=ALVT
.SUBCKT ALVTS2240 ExtVcc ExtGnd OEbar Ain Yout  
* OEbar, pin 1; Ain, pin 47; Yout, pin 2 
X0 103 104 105 106 107 108 SUB24  
C59 $G_IntVcc $G_IntGnd 4E-12  
C53 109 $G_IntGnd 1E-12
XESD_109 109 $G_IntGnd ESDZENER   
C51 108 $G_IntGnd 1E-12
XESD_108 108 $G_IntGnd ESDZENER   
C55 110 $G_IntGnd 1E-12
XESD_110 110 $G_IntGnd ESDZENER   
X1 110 107 SUB29  
X2 106 105 109 SUB26  
X3 110 SUB12  
X4 103 104 SUB27  
X5 OEbar Yout ExtGnd ExtVcc ExtGnd ExtGnd ExtVcc ExtGnd ExtGnd ExtVcc ExtGnd ExtGnd ExtVcc ExtGnd Ain 109 108 $G_IntGnd $G_IntVcc $G_IntGnd $G_IntGnd $G_IntVcc $G_IntGnd $G_IntGnd $G_IntVcc $G_IntGnd $G_IntGnd $G_IntVcc $G_IntGnd 110 pks48_244 
.ENDS ALVTS2240
*INCLUDE ALVTNOM.LIB
**********
*SRC=ALVTS244;ALVTS244;BiCMOS;ALVT;I/O Only
*SYM=ALVT
.SUBCKT ALVTS244 ExtVcc ExtGnd OEbar Ain Yout  
* OEbar, pin 1; Ain, pin 47; Yout, pin 2
C54 103 $G_IntGnd 1E-12
XESD_103 103 $G_IntGnd ESDZENER   
C56 104 $G_IntGnd 1E-12
XESD_104 104 $G_IntGnd ESDZENER   
C52 105 $G_IntGnd 1E-12
XESD_105 105 $G_IntGnd ESDZENER   
C48 $G_IntVcc $G_IntGnd 4E-12  
X0 106 107 104 SUB26  
X1 103 SUB12  
X2 108 109 SUB27  
X3 108 109 107 106 103 105 SUB28  
X4 OEbar Yout ExtGnd ExtVcc ExtGnd ExtGnd ExtVcc ExtGnd ExtGnd ExtVcc ExtGnd ExtGnd 
+ ExtVcc ExtGnd Ain 104 105 $G_IntGnd
+ $G_IntVcc $G_IntGnd $G_IntGnd $G_IntVcc $G_IntGnd $G_IntGnd $G_IntVcc $G_IntGnd $G_IntGnd $G_IntVcc $G_IntGnd 103 pks48_244 
.ENDS ALVTS244
*INCLUDE ALVTNOM.LIB
**********
*SRC=ALVTS2244;ALVTS2244;BiCMOS;ALVT;I/O Only
*SYM=ALVT
.SUBCKT ALVTS2244 ExtVcc ExtGnd OEbar Ain Yout  
* OEbar, pin 1; Ain, pin 47; Yout, pin 2
X0 103 104 105 106 107 108 SUB24  
C48 $G_IntVcc $G_IntGnd 4E-12  
C52 108 $G_IntGnd 1E-12
XESD_108 108 $G_IntGnd ESDZENER   
C54 107 $G_IntGnd 1E-12 
XESD_107 107 $G_IntGnd ESDZENER  
C56 109 $G_IntGnd 1E-12
XESD_109 109 $G_IntGnd ESDZENER   
X1 106 105 109 SUB26  
X2 107 SUB12  
X3 103 104 SUB27  
X4 OEbar Yout ExtGnd ExtVcc ExtGnd ExtGnd ExtVcc ExtGnd ExtGnd ExtVcc ExtGnd ExtGnd ExtVcc ExtGnd Ain 109 108 $G_IntGnd $G_IntVcc $G_IntGnd $G_IntGnd $G_IntVcc $G_IntGnd $G_IntGnd $G_IntVcc $G_IntGnd $G_IntGnd $G_IntVcc $G_IntGnd 107 pks48_244 
.ENDS ALVTS2244
*INCLUDE ALVTNOM.LIB
**********
*SRC=ALVTS245;ALVTS245;BiCMOS;ALVT;I/O Only
*SYM=ALVT2
.SUBCKT ALVTS245 ExtVcc ExtGnd OEbar Dir Ain Bout  
* OEbar, pin 48; Dir, pin 1; Ain, pin 47; Bout, pin 2
C61 $G_IntVcc $G_IntGnd 4E-12  
C63 103 $G_IntGnd 1E-12
XESD_103 103 $G_IntGnd ESDZENER   
C65 104 $G_IntGnd 1E-12 
XESD_104 104 $G_IntGnd ESDZENER  
C67 105 $G_IntGnd 1E-12
XESD_105 105 $G_IntGnd ESDZENER   
C69 106 $G_IntGnd 1E-12
XESD_106 106 $G_IntGnd ESDZENER   
X0 107 SUB33  
X1 108 SUB34  
X2 106 103 108 109 110 SUB35  
X3 105 SUB36  
X4 107 110 109 105 104 SUB37  
X5 Dir Bout ExtGnd ExtVcc ExtGnd ExtGnd ExtVcc ExtGnd ExtGnd ExtVcc ExtGnd ExtGnd ExtVcc ExtGnd Ain OEbar 103 104 $G_IntGnd $G_IntVcc $G_IntGnd $G_IntGnd $G_IntVcc $G_IntGnd $G_IntGnd $G_IntVcc $G_IntGnd $G_IntGnd $G_IntVcc $G_IntGnd 105 106 pks48_245 
.ENDS ALVTS245  
*INCLUDE ALVTNOM.LIB
**********
*SRC=ALVTS2245;ALVTS2245;BiCMOS;ALVT;I/O Only
*SYM=ALVT2
.SUBCKT ALVTS2245 ExtVcc ExtGnd OEbar Dir Ain Bout  
* OEbar, pin 48; Dir, pin 1; Ain, pin 47; Bout, pin 2
X0 103 104 105 106 107 SUB53  
C61 $G_IntVcc $G_IntGnd 4E-12  
C63 108 $G_IntGnd 1E-12
XESD_108 108 $G_IntGnd ESDZENER   
C65 107 $G_IntGnd 1E-12
XESD_107 107 $G_IntGnd ESDZENER   
C67 106 $G_IntGnd 1E-12 
XESD_106 106 $G_IntGnd ESDZENER  
C69 109 $G_IntGnd 1E-12 
XESD_109 109 $G_IntGnd ESDZENER  
X1 103 SUB33  
X2 110 SUB34  
X3 109 108 110 105 104 SUB35  
X4 106 SUB36  
X5 Dir Bout ExtGnd ExtVcc ExtGnd ExtGnd ExtVcc ExtGnd ExtGnd ExtVcc ExtGnd ExtGnd ExtVcc ExtGnd Ain OEbar 108 107 $G_IntGnd $G_IntVcc $G_IntGnd $G_IntGnd $G_IntVcc $G_IntGnd $G_IntGnd $G_IntVcc $G_IntGnd $G_IntGnd $G_IntVcc $G_IntGnd 106 109 pks48_245 
.ENDS ALVTS2245
*INCLUDE ALVTNOM.LIB
**********
*SRC=ALVTS500;ALVTS500;BiCMOS;ALVT;I/O Only
*SYM=ALVT6
.SUBCKT ALVTS500 ExtVcc ExtGnd OEAB Ain Bout
* OEAB, pin 1; Ain, pin 3; Bout, pin 54
C75 103 $G_IntGnd 1E-12 
XESD_103 103 $G_IntGnd ESDZENER  
C73 $G_IntVcc $G_IntGnd 4E-12  
C79 104 $G_IntGnd 1E-12
XESD_104 104 $G_IntGnd ESDZENER   
C77 105 $G_IntGnd 1E-12 
XESD_105 105 $G_IntGnd ESDZENER  
X0 105 SUB12  
X1 106 107 104 SUB26  
X2 108 109 SUB27  
X3 108 109 106 107 105 103 SUB28  
XI57 OEAB Ain ExtGnd ExtVcc ExtGnd ExtGnd ExtVcc ExtGnd ExtGnd ExtVcc ExtGnd ExtGnd ExtVcc ExtGnd Bout ExtGnd 104 105 $G_IntGnd $G_IntVcc $G_IntGnd $G_IntGnd $G_IntVcc $G_IntGnd $G_IntGnd $G_IntVcc $G_IntGnd $G_IntGnd $G_IntVcc $G_IntGnd 103 $G_IntGnd pks56_500 
.ENDS ALVTS500
*INCLUDE ALVTNOM.LIB
**********
*SRC=ALVTS543;ALVTS543;BiCMOS;ALVT;I/O Only
*SYM=ALVT3
.SUBCKT ALVTS543 ExtVcc ExtGnd EABbar OEABbar Ain Bout 
* EABbar, pin 3; OEABbar, pin 1; Ain, pin 5; Bout, pin 52
C68 $G_IntVcc $G_IntGnd 4E-12  
C76 103 $G_IntGnd 1E-12
XESD_103 103 $G_IntGnd ESDZENER   
C74 104 $G_IntGnd 1E-12
XESD_104 104 $G_IntGnd ESDZENER   
C72 105 $G_IntGnd 1E-12
XESD_105 105 $G_IntGnd ESDZENER   
C70 106 $G_IntGnd 1E-12
XESD_106 106 $G_IntGnd ESDZENER   
X1 151 SUB33  
X2 152 SUB34  
X3 104 103 152 153 154 SUB35  
X4 106 SUB36  
X5 151 153 154 106 105 SUB37  
XI57 OEABbar EABbar ExtGnd Ain ExtVcc ExtGnd ExtGnd ExtVcc ExtGnd ExtGnd ExtVcc ExtGnd ExtGnd ExtVcc Bout ExtGnd 103 104 $G_IntGnd 106 $G_IntVcc $G_IntGnd $G_IntGnd $G_IntVcc $G_IntGnd $G_IntGnd $G_IntVcc $G_IntGnd $G_IntGnd $G_IntVcc 105 $G_IntGnd pks56_543 
.ENDS ALVTS543
*INCLUDE ALVTNOM.LIB
**********
*SRC=ALVTS600;ALVTS600;BiCMOS;ALVT;I/O Only
*SYM=ALVT4
.SUBCKT ALVTS600 ExtVcc ExtGnd OEABbar Ain Bout
* OEAB, pin 1; Ain, pin 3; Bout, pin 54
C75 104 $G_IntGnd 1E-12
XESD_104 104 $G_IntGnd ESDZENER   
C73 $G_IntVcc $G_IntGnd 4E-12  
C79 105 $G_IntGnd 1E-12
XESD_105 105 $G_IntGnd ESDZENER   
C77 106 $G_IntGnd 1E-12
XESD_106 106 $G_IntGnd ESDZENER   
X0 106 SUB12  
X1 107 108 105 SUB26  
X2 109 110 SUB27  
X3 109 110 108 107 106 104 SUB28  
XI57 OEABbar Ain ExtGnd ExtVcc ExtGnd ExtGnd ExtVcc ExtGnd ExtGnd ExtVcc ExtGnd ExtGnd ExtVcc ExtGnd Bout ExtGnd 105 106 $G_IntGnd $G_IntVcc $G_IntGnd $G_IntGnd $G_IntVcc $G_IntGnd $G_IntGnd $G_IntVcc $G_IntGnd $G_IntGnd $G_IntVcc $G_IntGnd 104 $G_IntGnd pks56_600 
.ENDS ALVTS600
*INCLUDE ALVTNOM.LIB
**********
*SRC=ALVTS827;ALVTS827;BiCMOS;ALVT;I/O Only
*SYM=ALVT5
.SUBCKT ALVTS827 ExtVcc ExtGnd OE0bar OE1bar Ain Yout 
* OE0bar, pin 1; OE1bar, pin 56; Ain, pin 55; Yout, pin 2
X2 103 104 105 106 107 108 109 110 111 SUB56  
XI146 OE0bar Yout ExtGnd ExtVcc ExtGnd ExtGnd ExtVcc ExtGnd ExtGnd ExtVcc ExtGnd ExtGnd ExtVcc ExtGnd Ain OE1bar 156 110 $G_IntGnd $G_IntVcc $G_IntGnd $G_IntGnd $G_IntVcc $G_IntGnd $G_IntGnd $G_IntVcc $G_IntGnd $G_IntGnd $G_IntVcc $G_IntGnd 107 157 pks56_827 
C80 110 $G_IntGnd 1E-12
XESD_110 110 $G_IntGnd ESDZENER   
C84 156 $G_IntGnd 1E-12
XESD_156 156 $G_IntGnd ESDZENER   
C87 157 $G_IntGnd 1E-12 
XESD_157 157 $G_IntGnd ESDZENER  
C92 107 $G_IntGnd 1E-12 
XESD_107 107 $G_IntGnd ESDZENER  
C111 $G_IntVcc $G_IntGnd 4E-12  
X3 156 106 105 158 SUB38  
X4 109 108 157 SUB39  
XBIAS_3 103 104 SUB40  
XI62 158 SUB41  
X45 158 111 SUB42
.ENDS ALVTS827
*INCLUDE ALVTNOM.LIB
**********
*SRC=ALVTS2827;ALVTS2827;BiCMOS;ALVT;I/O Only
*SYM=ALVT5
.SUBCKT ALVTS2827 ExtVcc ExtGnd OE0bar OE1bar Ain Yout 
* OE0bar, pin 1; OE1bar, pin 56; Ain, pin 55; Yout, pin 2
X2 103 104 105 106 107 108 109 110 111 SUB57  
XI146 OE0bar Yout ExtGnd ExtVcc ExtGnd ExtGnd ExtVcc ExtGnd ExtGnd ExtVcc ExtGnd ExtGnd ExtVcc ExtGnd Ain OE1bar 156 110 $G_IntGnd $G_IntVcc $G_IntGnd $G_IntGnd $G_IntVcc $G_IntGnd $G_IntGnd $G_IntVcc $G_IntGnd $G_IntGnd $G_IntVcc $G_IntGnd 107 157 pks56_827 
C84 156 $G_IntGnd 1E-12
XESD_156 156 $G_IntGnd ESDZENER   
C87 157 $G_IntGnd 1E-12
XESD_157 157 $G_IntGnd ESDZENER   
C92 107 $G_IntGnd 1E-12
XESD_107 107 $G_IntGnd ESDZENER   
C111 $G_IntVcc $G_IntGnd 4E-12  
C80 110 $G_IntGnd 1E-12 
XESD_110 110 $G_IntGnd ESDZENER  
X3 156 106 105 158 SUB38  
X4 109 108 157 SUB39  
XBIAS_3 103 104 SUB40  
XI62 158 SUB41  
X45 158 111 SUB42  
.ENDS ALVTS2827
*INCLUDE ALVTNOM.LIB
**********
*SRC=ALVTT240;ALVTT240;BiCMOS;ALVT;I/O Only
*SYM=ALVT
.SUBCKT ALVTT240 ExtVcc ExtGnd OEbar Ain Yout  
* OEbar, pin 1; Ain, pin 47; Yout, pin 2 
C59 $G_IntVcc $G_IntGnd 4E-12  
C53 103 $G_IntGnd 1E-12
XESD_103 103 $G_IntGnd ESDZENER   
C51 104 $G_IntGnd 1E-12
XESD_104 104 $G_IntGnd ESDZENER   
C55 105 $G_IntGnd 1E-12
XESD_105 105 $G_IntGnd ESDZENER   
X0 105 106 SUB29  
X1 107 108 103 SUB26  
X2 105 SUB12  
X3 109 110 SUB27  
X4 109 110 108 107 106 104 SUB28  
X5 OEbar Yout ExtGnd ExtVcc ExtGnd ExtGnd ExtVcc ExtGnd ExtGnd ExtVcc ExtGnd ExtGnd ExtVcc ExtGnd Ain 103 104 $G_IntGnd $G_IntVcc $G_IntGnd $G_IntGnd $G_IntVcc $G_IntGnd $G_IntGnd $G_IntVcc $G_IntGnd $G_IntGnd $G_IntVcc $G_IntGnd 105 pkt48_244 
.ENDS ALVTT240
*INCLUDE ALVTNOM.LIB
**********
*SRC=ALVTT2240;ALVTT2240;BiCMOS;ALVT;I/O Only
*SYM=ALVT
.SUBCKT ALVTT2240 ExtVcc ExtGnd OEbar Ain Yout  
* OEbar, pin 1; Ain, pin 47; Yout, pin 2 
X0 103 104 105 106 107 108 SUB24  
C59 $G_IntVcc $G_IntGnd 4E-12  
C53 109 $G_IntGnd 1E-12
XESD_109 109 $G_IntGnd ESDZENER   
C51 108 $G_IntGnd 1E-12
XESD_108 108 $G_IntGnd ESDZENER   
C55 110 $G_IntGnd 1E-12
XESD_110 110 $G_IntGnd ESDZENER   
X1 110 107 SUB29  
X2 106 105 109 SUB26  
X3 110 SUB12  
X4 103 104 SUB27  
X5 OEbar Yout ExtGnd ExtVcc ExtGnd ExtGnd ExtVcc ExtGnd ExtGnd ExtVcc ExtGnd ExtGnd ExtVcc ExtGnd Ain 109 108 $G_IntGnd $G_IntVcc $G_IntGnd $G_IntGnd $G_IntVcc $G_IntGnd $G_IntGnd $G_IntVcc $G_IntGnd $G_IntGnd $G_IntVcc $G_IntGnd 110 pkt48_244 
.ENDS ALVTT2240
*INCLUDE ALVTNOM.LIB
**********
*SRC=ALVTT244;ALVTT244;BiCMOS;ALVT;I/O Only
*SYM=ALVT
.SUBCKT ALVTT244 ExtVcc ExtGnd OEbar Ain Yout  
* OEbar, pin 1; Ain, pin 47; Yout, pin 2
C54 103 $G_IntGnd 1E-12 
XESD_103 103 $G_IntGnd ESDZENER  
C56 104 $G_IntGnd 1E-12
XESD_104 104 $G_IntGnd ESDZENER   
C52 105 $G_IntGnd 1E-12
XESD_105 105 $G_IntGnd ESDZENER   
C48 $G_IntVcc $G_IntGnd 4E-12  
X0 106 107 104 SUB26  
X1 103 SUB12  
X2 108 109 SUB27  
X3 108 109 107 106 103 105 SUB28  
X4 OEbar Yout ExtGnd ExtVcc ExtGnd ExtGnd ExtVcc ExtGnd ExtGnd ExtVcc ExtGnd ExtGnd ExtVcc ExtGnd Ain 104 105 $G_IntGnd $G_IntVcc $G_IntGnd $G_IntGnd $G_IntVcc $G_IntGnd $G_IntGnd $G_IntVcc $G_IntGnd $G_IntGnd $G_IntVcc $G_IntGnd 103 pkt48_244 
.ENDS ALVTT244
*INCLUDE ALVTNOM.LIB
**********
*SRC=ALVTT2244;ALVTT2244;BiCMOS;ALVT;I/O Only
*SYM=ALVT
.SUBCKT ALVTT2244 ExtVcc ExtGnd OEbar Ain Yout  
* OEbar, pin 1; Ain, pin 47; Yout, pin 2
X0 103 104 105 106 107 108 SUB24  
C48 $G_IntVcc $G_IntGnd 4E-12  
C52 108 $G_IntGnd 1E-12
XESD_108 108 $G_IntGnd ESDZENER   
C54 107 $G_IntGnd 1E-12
XESD_107 107 $G_IntGnd ESDZENER   
C56 109 $G_IntGnd 1E-12
XESD_109 109 $G_IntGnd ESDZENER   
X1 106 105 109 SUB26  
X2 107 SUB12  
X3 103 104 SUB27  
X4 OEbar Yout ExtGnd ExtVcc ExtGnd ExtGnd ExtVcc ExtGnd ExtGnd ExtVcc ExtGnd ExtGnd ExtVcc ExtGnd Ain 109 108 $G_IntGnd $G_IntVcc $G_IntGnd $G_IntGnd $G_IntVcc $G_IntGnd $G_IntGnd $G_IntVcc $G_IntGnd $G_IntGnd $G_IntVcc $G_IntGnd 107 pkt48_244 
.ENDS ALVTT2244
*INCLUDE ALVTNOM.LIB
**********
*SRC=ALVTT245;ALVTT245;BiCMOS;ALVT;I/O Only
*SYM=ALVT2
.SUBCKT ALVTT245 ExtVcc ExtGnd OEbar Dir Ain Bout  
* OEbar, pin 48; Dir, pin 1; Ain, pin 47; Bout, pin 2
C61 $G_IntVcc $G_IntGnd 4E-12  
C63 103 $G_IntGnd 1E-12
XESD_103 103 $G_IntGnd ESDZENER   
C65 104 $G_IntGnd 1E-12
XESD_104 104 $G_IntGnd ESDZENER   
C67 105 $G_IntGnd 1E-12
XESD_105 105 $G_IntGnd ESDZENER   
C69 106 $G_IntGnd 1E-12
XESD_106 106 $G_IntGnd ESDZENER   
X0 107 SUB33  
X1 108 SUB34  
X2 106 103 108 109 110 SUB35  
X3 105 SUB36  
X4 107 110 109 105 104 SUB37  
X5 Dir Bout ExtGnd ExtVcc ExtGnd ExtGnd ExtVcc ExtGnd ExtGnd ExtVcc ExtGnd ExtGnd ExtVcc ExtGnd Ain OEbar 103 104 $G_IntGnd $G_IntVcc $G_IntGnd $G_IntGnd $G_IntVcc $G_IntGnd $G_IntGnd $G_IntVcc $G_IntGnd $G_IntGnd $G_IntVcc $G_IntGnd 105 106 pkt48_245 
.ENDS ALVTT245  
*INCLUDE ALVTNOM.LIB
**********
*SRC=ALVTT2245;ALVTT2245;BiCMOS;ALVT;I/O Only
*SYM=ALVT2
.SUBCKT ALVTT2245 ExtVcc ExtGnd OEbar Dir Ain Bout  
* OEbar, pin 48; Dir, pin 1; Ain, pin 47; Bout, pin 2
X0 103 104 105 106 107 SUB53  
C61 $G_IntVcc $G_IntGnd 4E-12  
C63 108 $G_IntGnd 1E-12
XESD_108 108 $G_IntGnd ESDZENER   
C65 107 $G_IntGnd 1E-12 
XESD_107 107 $G_IntGnd ESDZENER  
C67 106 $G_IntGnd 1E-12
XESD_106 106 $G_IntGnd ESDZENER   
C69 109 $G_IntGnd 1E-12 
XESD_109 109 $G_IntGnd ESDZENER  
X1 103 SUB33  
X2 110 SUB34  
X3 109 108 110 105 104 SUB35  
X4 106 SUB36  
X5 Dir Bout ExtGnd ExtVcc ExtGnd ExtGnd ExtVcc ExtGnd ExtGnd ExtVcc ExtGnd ExtGnd ExtVcc ExtGnd Ain OEbar 108 107 $G_IntGnd $G_IntVcc $G_IntGnd $G_IntGnd $G_IntVcc $G_IntGnd $G_IntGnd $G_IntVcc $G_IntGnd $G_IntGnd $G_IntVcc $G_IntGnd 106 109 pkt48_245 
.ENDS ALVTT2245
*INCLUDE ALVTNOM.LIB
**********
*SRC=ALVTT500;ALVTT500;BiCMOS;ALVT;I/O Only
*SYM=ALVT6
.SUBCKT ALVTT500 ExtVcc ExtGnd OEAB Ain Bout
* OEAB, pin 1; Ain, pin 3; Bout, pin 54
C75 103 $G_IntGnd 1E-12
XESD_103 103 $G_IntGnd ESDZENER   
C73 $G_IntVcc $G_IntGnd 4E-12  
C79 104 $G_IntGnd 1E-12 
XESD_104 104 $G_IntGnd ESDZENER  
C77 105 $G_IntGnd 1E-12 
XESD_105 105 $G_IntGnd ESDZENER  
X0 105 SUB12  
X1 106 107 104 SUB26  
X2 108 109 SUB27  
X3 108 109 106 107 105 103 SUB28  
XI57 OEAB Ain ExtGnd ExtVcc ExtGnd ExtGnd ExtVcc ExtGnd ExtGnd ExtVcc ExtGnd ExtGnd  ExtVcc ExtGnd Bout ExtGnd 104 105 $G_IntGnd $G_IntVcc $G_IntGnd $G_IntGnd $G_IntVcc $G_IntGnd $G_IntGnd $G_IntVcc $G_IntGnd $G_IntGnd $G_IntVcc $G_IntGnd 103 $G_IntGnd pkt56_500 
.ENDS ALVTT500
*INCLUDE ALVTNOM.LIB
**********
*SRC=ALVTT543;ALVTT543;BiCMOS;ALVT;I/O Only
*SYM=ALVT3
.SUBCKT ALVTT543 ExtVcc ExtGnd EABbar OEABbar Ain Bout 
* EABbar, pin 3; OEABbar, pin 1; Ain, pin 5; Bout, pin 52
C68 $G_IntVcc $G_IntGnd 4E-12  
C76 103 $G_IntGnd 1E-12
XESD_103 103 $G_IntGnd ESDZENER   
C74 104 $G_IntGnd 1E-12 
XESD_104 104 $G_IntGnd ESDZENER  
C72 105 $G_IntGnd 1E-12
XESD_105 105 $G_IntGnd ESDZENER   
C70 106 $G_IntGnd 1E-12
XESD_106 106 $G_IntGnd ESDZENER   
X1 151 SUB33  
X2 152 SUB34  
X3 104 103 152 153 154 SUB35  
X4 106 SUB36  
X5 151 153 154 106 105 SUB37  
XI57 OEABbar EABbar ExtGnd Ain ExtVcc ExtGnd ExtGnd ExtVcc ExtGnd ExtGnd ExtVcc  ExtGnd ExtGnd ExtVcc Bout ExtGnd 103 104 $G_IntGnd 106 $G_IntVcc $G_IntGnd $G_IntGnd $G_IntVcc $G_IntGnd $G_IntGnd $G_IntVcc $G_IntGnd $G_IntGnd $G_IntVcc 105 $G_IntGnd pkt56_543 
.ENDS ALVTT543
*INCLUDE ALVTNOM.LIB
**********
*SRC=ALVTT600;ALVTT600;BiCMOS;ALVT;I/O Only
*SYM=ALVT4
.SUBCKT ALVTT600 ExtVcc ExtGnd OEABbar Ain Bout
* OEAB, pin 1; Ain, pin 3; Bout, pin 54
C75 104 $G_IntGnd 1E-12
XESD_104 104 $G_IntGnd ESDZENER   
C73 $G_IntVcc $G_IntGnd 4E-12  
C79 105 $G_IntGnd 1E-12
XESD_105 105 $G_IntGnd ESDZENER   
C77 106 $G_IntGnd 1E-12
XESD_106 106 $G_IntGnd ESDZENER   
X0 106 SUB12  
X1 107 108 105 SUB26  
X2 109 110 SUB27  
X3 109 110 108 107 106 104 SUB28  
XI57 OEABbar Ain ExtGnd ExtVcc ExtGnd ExtGnd ExtVcc ExtGnd ExtGnd ExtVcc ExtGnd  ExtGnd ExtVcc ExtGnd Bout ExtGnd 105 106 $G_IntGnd $G_IntVcc $G_IntGnd $G_IntGnd $G_IntVcc $G_IntGnd $G_IntGnd $G_IntVcc $G_IntGnd $G_IntGnd $G_IntVcc $G_IntGnd 104 $G_IntGnd pkt56_600 
.ENDS ALVTT600
*INCLUDE ALVTNOM.LIB
**********
*SRC=ALVTT827;ALVTT827;BiCMOS;ALVT;I/O Only
*SYM=ALVT5
.SUBCKT ALVTT827 ExtVcc ExtGnd OE0bar OE1bar Ain Yout 
* OE0bar, pin 1; OE1bar, pin 56; Ain, pin 55; Yout, pin 2
X2 103 104 105 106 107 108 109 110 111 SUB56  
XI146 OE0bar Yout ExtGnd ExtVcc ExtGnd ExtGnd ExtVcc ExtGnd ExtGnd ExtVcc ExtGnd  ExtGnd ExtVcc ExtGnd  Ain OE1bar 156 110 $G_IntGnd $G_IntVcc $G_IntGnd $G_IntGnd $G_IntVcc $G_IntGnd $G_IntGnd $G_IntVcc $G_IntGnd $G_IntGnd $G_IntVcc $G_IntGnd 107 157 pkt56_827 
C80 110 $G_IntGnd 1E-12
XESD_110 110 $G_IntGnd ESDZENER   
C84 156 $G_IntGnd 1E-12
XESD_156 156 $G_IntGnd ESDZENER   
C87 157 $G_IntGnd 1E-12
XESD_157 157 $G_IntGnd ESDZENER   
C92 107 $G_IntGnd 1E-12
XESD_107 107 $G_IntGnd ESDZENER   
C111 $G_IntVcc $G_IntGnd 4E-12  
X3 156 106 105 158 SUB38  
X4 109 108 157 SUB39  
XBIAS_3 103 104 SUB40  
XI62 158 SUB41  
X45 158 111 SUB42  
.ENDS ALVTT827
*INCLUDE ALVTNOM.LIB
**********
*SRC=ALVTT2827;ALVTT2827;BiCMOS;ALVT;I/O Only
*SYM=ALVT5
.SUBCKT ALVTT2827 ExtVcc ExtGnd OE0bar OE1bar Ain Yout 
* OE0bar, pin 1; OE1bar, pin 56; Ain, pin 55; Yout, pin 2
X2 103 104 105 106 107 108 109 110 111 SUB57  
XI146 OE0bar Yout ExtGnd ExtVcc ExtGnd ExtGnd ExtVcc ExtGnd ExtGnd ExtVcc ExtGnd  ExtGnd ExtVcc ExtGnd Ain OE1bar 156 110 $G_IntGnd $G_IntVcc $G_IntGnd $G_IntGnd $G_IntVcc $G_IntGnd $G_IntGnd $G_IntVcc $G_IntGnd $G_IntGnd $G_IntVcc $G_IntGnd 107 157 pkt56_827 
C84 156 $G_IntGnd 1E-12
XESD_156 156 $G_IntGnd ESDZENER   
C87 157 $G_IntGnd 1E-12
XESD_157 157 $G_IntGnd ESDZENER   
C92 107 $G_IntGnd 1E-12
XESD_107 107 $G_IntGnd ESDZENER   
C111 $G_IntVcc $G_IntGnd 4E-12  
C80 110 $G_IntGnd 1E-12
XESD_110 110 $G_IntGnd ESDZENER   
X3 156 106 105 158 SUB38  
X4 109 108 157 SUB39  
XBIAS_3 103 104 SUB40  
XI62 158 SUB41  
X45 158 111 SUB42  
.ENDS ALVTT2827
*INCLUDE ALVTNOM.LIB
* OTHER SUBCKTS
**********
.SUBCKT SUB172 160 161  
MQN7 161 160 $G_IntGnd $G_IntGnd NHWNMOS  L=1.6E-06 W=1.871E-06 NRD=1.325E-01  NRS=1.325E-01  AD=36E-12 AS=36E-12
+ PD=43.6E-6 PS=43.6E-6  
MQP8 161 160 $G_IntVcc $G_IntVcc NHWPMOS  L=8E-07 W=7.89E-06 NRD=3.313E-02  NRS=3.313E-02  AD=36E-12 AS=36E-12
+ PD=43.6E-6 PS=43.6E-6  
.ENDS SUB172  
*INCLUDE ALVTNOM.LIB
**********
.SUBCKT SUB1751 160 161  
MQN7 161 160 $G_IntGnd $G_IntGnd NHWNMOS  L=8E-07 W=1.871E-06 NRD=1.325E-01  NRS=1.325E-01  AD=36E-12 AS=36E-12
+ PD=43.6E-6 PS=43.6E-6  
MQP8 161 160 $G_IntVcc $G_IntVcc NHWPMOS  L=8E-07 W=3.89E-06 NRD=6.625E-02  NRS=6.625E-02  AD=36E-12 AS=36E-12
+ PD=43.6E-6 PS=43.6E-6  
.ENDS SUB1751  
*INCLUDE ALVTNOM.LIB
**********
.SUBCKT SUB173 160 161  
MQN7 161 160 $G_IntGnd $G_IntGnd NHWNMOS  L=8E-07 W=1.871E-06 NRD=1.325E-01  NRS=1.325E-01  AD=36E-12 AS=36E-12
+ PD=43.6E-6 PS=43.6E-6  
MQP8 161 160 $G_IntVcc $G_IntVcc NHWPMOS  L=8E-07 W=1.89E-06 NRD=1.325E-01  NRS=1.325E-01  AD=36E-12 AS=36E-12
+ PD=43.6E-6 PS=43.6E-6  
.ENDS SUB173  
*INCLUDE ALVTNOM.LIB
**********
.SUBCKT SUB17 223 224 225 190 226 227  
M70 228 190 227 227 NHWPMOS  L=1E-6 W=5.89E-6 NRD=4.417E-02  NRS=4.417E-02  AD=10.8E-12 AS=10.8E-12 PD=15.6E-6
+ PS=15.6E-6  
M69 $G_IntVcc 228 227 227 NHWPMOS  L=1E-6 W=19.89E-6 NRD=1.325E-02  NRS=1.325E-02  AD=36E-12 AS=36E-12 PD=43.6E-6
+ PS=43.6E-6  
M1 229 223 226 227 NHWPMOS  L=1E-6 W=19.89E-6 NRD=1.325E-02  NRS=1.325E-02  AD=36E-12 AS=36E-12 PD=43.6E-6
+ PS=43.6E-6  
Q61 190 230 $G_IntGnd $G_IntGnd NHW2SBTC  
Q62 $G_IntVcc 104 190 $G_IntGnd NHW2SBTC  
M71 228 190 $G_IntGnd $G_IntGnd NHWNMOS  L=1E-6 W=2.871E-6 NRD=8.833E-02  NRS=8.833E-02  AD=5.4E-12 AS=5.4E-12
+ PD=9.6E-6 PS=9.6E-6  
M53 229 224 $G_IntGnd $G_IntGnd NHWNMOS  L=1E-6 W=1.871E-6 NRD=1.325E-01  NRS=1.325E-01  AD=3.6E-12 AS=3.6E-12
+ PD=7.6E-6 PS=7.6E-6  
M42 229 225 231 $G_IntGnd NHWNMOS  L=1E-6 W=1.871E-6 NRD=1.325E-01  NRS=1.325E-01  AD=3.6E-12 AS=3.6E-12 PD=7.6E-6
+ PS=7.6E-6  
M55 230 232 $G_IntGnd $G_IntGnd NHWNMOS  L=800E-9 W=1.871E-6 NRD=1.325E-01  NRS=1.325E-01  AD=3.6E-12 AS=3.6E-12
+ PD=7.6E-6 PS=7.6E-6  
M33 231 224 $G_IntGnd $G_IntGnd NHWNMOS  L=1E-6 W=4.871E-6 NRD=5.300E-02  NRS=5.300E-02  AD=9E-12 AS=9E-12 PD=13.6E-6
+ PS=13.6E-6  
M45 229 232 233 $G_IntGnd NHWNMOS  L=1E-6 W=1.871E-6 NRD=1.325E-01  NRS=1.325E-01  AD=3.6E-12 AS=3.6E-12 PD=7.6E-6
+ PS=7.6E-6  
M44 233 224 $G_IntGnd $G_IntGnd NHWNMOS  L=1E-6 W=4.871E-6 NRD=5.300E-02  NRS=5.300E-02  AD=9E-12 AS=9E-12 PD=13.6E-6
+ PS=13.6E-6  
M66 229 107 $G_IntGnd $G_IntGnd NHWNMOS  L=1E-6 W=7.871E-6 NRD=3.313E-02  NRS=3.313E-02  AD=14.4E-12 AS=14.4E-12
+ PD=19.6E-6 PS=19.6E-6  
X52 229 232 SUB1751  
X58 229 104 SUB1751  
X68 226 107 SUB172  
X67 229 190 SUB173  
M56 230 232 190 $G_IntVcc NHWPMOS  L=800E-9 W=5.89E-6 NRD=4.417E-02  NRS=4.417E-02  AD=10.8E-12 AS=10.8E-12 PD=15.6E-6
+ PS=15.6E-6  
.ENDS SUB17  
*INCLUDE ALVTNOM.LIB
**********
.SUBCKT SUB292 151 152  
MQN7 152 151 $G_IntGnd $G_IntGnd NHWNMOS  L=8E-7 W=2.9871E-05 NRD=8.833E-03  NRS=8.833E-03  AD=36E-12 AS=36E-12
+ PD=43.6E-6 PS=43.6E-6  
MQP8 152 151 $G_IntVcc $G_IntVcc NHWPMOS  L=8E-7 W=5.89E-05 NRD=4.417E-03  NRS=4.417E-03  AD=36E-12 AS=36E-12 PD=43.6E-6
+ PS=43.6E-6  
.ENDS SUB292  
*INCLUDE ALVTNOM.LIB
**********
.SUBCKT SUB293 151 152  
MQN7 152 151 $G_IntGnd $G_IntGnd NHWNMOS  L=8E-7 W=1.871E-06 NRD=1.325E-01  NRS=1.325E-01  AD=36E-12 AS=36E-12
+ PD=43.6E-6 PS=43.6E-6  
MQP8 152 151 $G_IntVcc $G_IntVcc NHWPMOS  L=8E-7 W=3.89E-06 NRD=6.625E-02  NRS=6.625E-02  AD=36E-12 AS=36E-12 PD=43.6E-6
+ PS=43.6E-6  
.ENDS SUB293  
*INCLUDE ALVTNOM.LIB
**********
.SUBCKT SUB2961 151 152  
MQN7 152 151 $G_IntGnd $G_IntGnd NHWNMOS  L=8E-7 W=4.9871E-05 NRD=5.300E-03  NRS=5.300E-03  AD=36E-12 AS=36E-12
+ PD=43.6E-6 PS=43.6E-6  
MQP8 152 151 $G_IntVcc $G_IntVcc NHWPMOS  L=8E-7 W=4.989E-05 NRD=5.300E-03  NRS=5.300E-03  AD=36E-12 AS=36E-12 PD=43.6E-6
+ PS=43.6E-6  
.ENDS SUB2961  
*INCLUDE ALVTNOM.LIB
**********
.SUBCKT SUB29 198 199  
Q1 $G_IntVcc 230 199 $G_IntGnd NHW4DBTC  
X3 198 199 SUB2961   
X2 198 230 SUB292   
X10 199 231 SUB293   
M9 230 231 $G_IntGnd $G_IntGnd NHWNMOS  L=800E-9 W=4.871E-6 NRD=5.300E-02  NRS=5.300E-02  AD=9E-12 AS=9E-12 PD=13.6E-6
+ PS=13.6E-6  
.ENDS SUB29  
*INCLUDE ALVTNOM.LIB
**********
.SUBCKT SUB24 162 163 164 165 160 161  
R0 166 $G_IntGnd 8E3  
CI8 167 $G_IntGnd 400E-15  
XQQ394 168 169 170 $G_IntGnd NHW38STSBDET  
XQQ15 171 172 $G_IntGnd $G_IntGnd NHW6STDBTC  
XQQ358 168 169 170 $G_IntGnd NHW38STSBDET  
M0 173 $G_IntVcc $G_IntGnd $G_IntGnd NHWNMOS  L=800E-9 W=2.871E-6 NRD=8.833E-02  NRS=8.833E-02  AD=5.4E-12 AS=5.4E-12
+ PD=9.6E-6 PS=9.6E-6  
MQN370 174 160 $G_IntGnd $G_IntGnd NHWNMOS  L=800E-9 W=31.871E-6 NRD=8.281E-03  NRS=8.281E-03  AD=57.6E-12 AS=57.6E-12
+ PD=67.6E-6 PS=67.6E-6  
MQN416 175 165 $G_IntGnd $G_IntGnd NHWNMOS  L=800E-9 W=9.871E-6 NRD=2.650E-02  NRS=2.650E-02  AD=18E-12 AS=18E-12
+ PD=23.6E-6 PS=23.6E-6  
M523 167 176 177 $G_IntGnd NHWNMOS  L=800E-9 W=3.871E-6 NRD=6.625E-02  NRS=6.625E-02  AD=7.2E-12 AS=7.2E-12
+ PD=11.6E-6 PS=11.6E-6  
MQN379 164 178 179 $G_IntGnd NHWNMOS  L=800E-9 W=149.871E-6 NRD=1.767E-03  NRS=1.767E-03  AD=270E-12 AS=270E-12
+ PD=303.6E-6 PS=303.6E-6  
MQN382 180 164 181 $G_IntGnd NHWNMOS  L=800E-9 W=7.871E-6 NRD=3.313E-02  NRS=3.313E-02  AD=14.4E-12 AS=14.4E-12
+ PD=19.6E-6 PS=19.6E-6  
MQN434 169 165 $G_IntGnd $G_IntGnd NHWNMOS  L=800E-9 W=24.871E-6 NRD=1.060E-02  NRS=1.060E-02  AD=45E-12 AS=45E-12
+ PD=53.6E-6 PS=53.6E-6  
M551 167 182 183 $G_IntGnd NHWNMOS  L=800E-9 W=29.871E-6 NRD=8.833E-03  NRS=8.833E-03  AD=54E-12 AS=54E-12
+ PD=63.6E-6 PS=63.6E-6  
M553 183 184 $G_IntGnd $G_IntGnd NHWNMOS  L=800E-9 W=1.871E-6 NRD=1.325E-01  NRS=1.325E-01  AD=3.6E-12 AS=3.6E-12
+ PD=7.6E-6 PS=7.6E-6  
MQN376 169 167 $G_IntGnd $G_IntGnd NHWNMOS  L=800E-9 W=24.871E-6 NRD=1.060E-02  NRS=1.060E-02  AD=45E-12 AS=45E-12
+ PD=53.6E-6 PS=53.6E-6  
MQN456 175 185 $G_IntGnd $G_IntGnd NHWNMOS  L=800E-9 W=9.871E-6 NRD=2.650E-02  NRS=2.650E-02  AD=18E-12 AS=18E-12
+ PD=23.6E-6 PS=23.6E-6  
MQN365 179 165 $G_IntGnd $G_IntGnd NHWNMOS  L=800E-9 W=39.871E-6 NRD=6.625E-03  NRS=6.625E-03  AD=72E-12 AS=72E-12
+ PD=83.6E-6 PS=83.6E-6  
MQN410 167 160 $G_IntGnd $G_IntGnd NHWNMOS  L=800E-9 W=119.871E-6 NRD=2.208E-03  NRS=2.208E-03  AD=216E-12 AS=216E-12
+ PD=243.6E-6 PS=243.6E-6  
MQN419 176 186 187 $G_IntGnd NHWNMOS  L=800E-9 W=19.871E-6 NRD=1.325E-02  NRS=1.325E-02  AD=36E-12 AS=36E-12
+ PD=43.6E-6 PS=43.6E-6  
MQN411 187 176 $G_IntGnd $G_IntGnd NHWNMOS  L=800E-9 W=1.871E-6 NRD=1.325E-01  NRS=1.325E-01  AD=3.6E-12 AS=3.6E-12
+ PD=7.6E-6 PS=7.6E-6  
MQN355 188 164 189 $G_IntGnd NHWNMOS  L=800E-9 W=19.871E-6 NRD=1.325E-02  NRS=1.325E-02  AD=36E-12 AS=36E-12
+ PD=43.6E-6 PS=43.6E-6  
MQN361 189 190 $G_IntGnd $G_IntGnd NHWNMOS  L=800E-9 W=19.871E-6 NRD=1.325E-02  NRS=1.325E-02  AD=36E-12 AS=36E-12
+ PD=43.6E-6 PS=43.6E-6  
M1 167 176 173 $G_IntGnd NHWNMOS  L=800E-9 W=11.871E-6 NRD=2.208E-02  NRS=2.208E-02  AD=21.6E-12 AS=21.6E-12
+ PD=27.6E-6 PS=27.6E-6  
M526 177 $G_IntVcc $G_IntGnd $G_IntGnd NHWNMOS  L=800E-9 W=1.871E-6 NRD=1.325E-01  NRS=1.325E-01  AD=3.6E-12 AS=3.6E-12
+ PD=7.6E-6 PS=7.6E-6  
M30 169 191 166 $G_IntGnd NHWNMOS  L=800E-9 W=19.871E-6 NRD=1.325E-02  NRS=1.325E-02  AD=36E-12 AS=36E-12 PD=43.6E-6
+ PS=43.6E-6  
M29 169 191 192 $G_IntGnd NHWNMOS  L=800E-9 W=1.871E-6 NRD=1.325E-01  NRS=1.325E-01  AD=3.6E-12 AS=3.6E-12 PD=7.6E-6
+ PS=7.6E-6  
M11 192 169 $G_IntGnd $G_IntGnd NHWNMOS  L=800E-9 W=1.871E-6 NRD=1.325E-01  NRS=1.325E-01  AD=3.6E-12 AS=3.6E-12
+ PD=7.6E-6 PS=7.6E-6  
MQN415 181 190 $G_IntGnd $G_IntGnd NHWNMOS  L=800E-9 W=7.871E-6 NRD=3.313E-02  NRS=3.313E-02  AD=14.4E-12 AS=14.4E-12
+ PD=19.6E-6 PS=19.6E-6  
MQN344 171 185 188 $G_IntGnd NHWNMOS  L=800E-9 W=19.871E-6 NRD=1.325E-02  NRS=1.325E-02  AD=36E-12 AS=36E-12
+ PD=43.6E-6 PS=43.6E-6  
MQN369 179 185 $G_IntGnd $G_IntGnd NHWNMOS  L=800E-9 W=24.871E-6 NRD=1.060E-02  NRS=1.060E-02  AD=45E-12 AS=45E-12
+ PD=53.6E-6 PS=53.6E-6  
MQN349 193 164 $G_IntGnd $G_IntGnd NHWNMOS  L=1E-6 W=49.871E-6 NRD=5.300E-03  NRS=5.300E-03  AD=90E-12 AS=90E-12
+ PD=103.6E-6 PS=103.6E-6  
MQN443 194 165 $G_IntGnd $G_IntGnd NHWNMOS  L=800E-9 W=9.871E-6 NRD=2.650E-02  NRS=2.650E-02  AD=18E-12 AS=18E-12
+ PD=23.6E-6 PS=23.6E-6  
MQN423 195 176 179 $G_IntGnd NHWNMOS  L=800E-9 W=239.871E-6 NRD=1.104E-03  NRS=1.104E-03  AD=432E-12 AS=432E-12
+ PD=483.6E-6 PS=483.6E-6  
MQN371 196 185 $G_IntGnd $G_IntGnd NHWNMOS  L=800E-9 W=7.871E-6 NRD=3.313E-02  NRS=3.313E-02  AD=14.4E-12 AS=14.4E-12
+ PD=19.6E-6 PS=19.6E-6  
MQN396 196 160 $G_IntGnd $G_IntGnd NHWNMOS  L=800E-9 W=36.871E-6 NRD=7.162E-03  NRS=7.162E-03  AD=66.6E-12 AS=66.6E-12
+ PD=77.6E-6 PS=77.6E-6  
MQN393 194 167 $G_IntGnd $G_IntGnd NHWNMOS  L=800E-9 W=19.871E-6 NRD=1.325E-02  NRS=1.325E-02  AD=36E-12 AS=36E-12
+ PD=43.6E-6 PS=43.6E-6  
M8 172 197 $G_IntGnd $G_IntGnd NHWNMOS  L=800E-9 W=3.871E-6 NRD=6.625E-02  NRS=6.625E-02  AD=7.2E-12 AS=7.2E-12
+ PD=11.6E-6 PS=11.6E-6  
M5 169 198 172 $G_IntGnd NHWNMOS  L=800E-9 W=59.871E-6 NRD=4.417E-03  NRS=4.417E-03  AD=108E-12 AS=108E-12
+ PD=123.6E-6 PS=123.6E-6  
MQN430 199 167 193 $G_IntGnd NHWNMOS  L=1E-6 W=49.871E-6 NRD=5.300E-03  NRS=5.300E-03  AD=90E-12 AS=90E-12
+ PD=103.6E-6 PS=103.6E-6  
X549 185 184 SUB244  
X0 186 176 SUB245  
X542 185 174 SUB246  
X545 167 185 SUB247  
X544 167 200 SUB248  
X533 186 201 SUB249  
X31 169 191 SUB2410  
X534 161 202 SUB2411  
X550 184 182 SUB2412  
X6 197 198 SUB2413  
X1 161 164 186 SUB2414  
X7 171 190 197 SUB2415  
R120 170 161 24.4  
R119 161 203 24.4  
R350 204 168 5.0  
R395 205 203 5  
R482 206 195 50  
Q530 194 177 $G_IntGnd $G_IntGnd NHW2SBTC  
Q4 175 192 $G_IntGnd $G_IntGnd NHW2SBTC  
Q351 175 175 207 $G_IntGnd NHW8DBTC  
Q352 176 187 $G_IntGnd $G_IntGnd NHW3DBTC  
Q531 $G_IntVcc 201 176 $G_IntGnd NHW3DBTC  
Q548 185 183 $G_IntGnd $G_IntGnd NHW4DBTC  
Q454 203 179 $G_IntGnd $G_IntGnd NHW38SBDETCNW  
Q457 208 174 171 $G_IntGnd NHW10DBTC  
Q444 208 180 171 $G_IntGnd NHW6DBTC  
Q449 $G_IntVcc 175 179 $G_IntGnd NHW8DBTC  
Q540 $G_IntVcc 200 185 $G_IntGnd NHW4DBTC  
Q381 203 179 $G_IntGnd $G_IntGnd NHW38SBDETCNW  
Q384 $G_IntVcc 194 169 $G_IntGnd NHW6DBTC  
Q366 $G_IntVcc 196 167 $G_IntGnd NHW6DBTC  
Q392 203 179 $G_IntGnd $G_IntGnd NHW38SBDETCNW  
Q529 179 166 $G_IntGnd $G_IntGnd NHW3DBTC  
Q354 $G_IntVcc 196 206 $G_IntGnd NHW8DBTC  
Q528 169 173 $G_IntGnd $G_IntGnd NHW3DBTC  
MQP359 175 185 209 $G_IntVcc NHWPMOS  L=800E-9 W=23.89E-6 NRD=1.104E-02  NRS=1.104E-02  AD=43.2E-12 AS=43.2E-12
+ PD=51.6E-6 PS=51.6E-6  
M536 $G_IntVcc 160 174 $G_IntVcc NHWPMOS  L=800E-9 W=69.89E-6 NRD=3.786E-03  NRS=3.786E-03  AD=126E-12 AS=126E-12
+ PD=143.6E-6 PS=143.6E-6  
MQP402 194 167 210 $G_IntVcc NHWPMOS  L=800E-9 W=79.89E-6 NRD=3.312E-03  NRS=3.312E-03  AD=144E-12 AS=144E-12
+ PD=163.6E-6 PS=163.6E-6  