*************************************
*COPYRIGHT 1994, BY AMP INCORPORATED*
**ALL INTERNATIONAL RIGHTS RESERVED**
*************************************
***************************************************
*                    *    AMP Connector Catalog No.
*  MODU SYSTEM 50    *            82178
*  VERTICAL          *
*  THRU HOLE         *
**********************
*  rev 3/1/94
*!!!!!!!!!!!!!!!!!!!!!!!!!!!!!!!!!!!!!!!!!
*
* THE FOLLOWING RLC MODELS ARE APPROPRIATE
* FOR EDGE SPEEDS OF 500PS OR SLOWER
*
*!!!!!!!!!!!!!!!!!!!!!!!!!!!!!!!!!!!!!!!!!
*
****************** RLC MODELS ********************
*
*  ROW A = ROW B = MEDIAN
***************IN*OUT*REF
.SUBCKT MS5VTM_AP 1  2   3
************************
R1 1 4 0.009
L4 4 2 3.3NH
C4 4 3 1.0PF
.ENDS
*************
*
********** TRANSMISSION LINE MODELS **************
*
*  ROW A = ROW B = MEDIAN
****************IN*OUT*REF
.SUBCKT MS5VTML_AP 1  2   3
*************************
R1 1 4 0.009
T4 4 3 2 3 Z0=58 TD=56PS
.ENDS
**************
*
*************************************
*COPYRIGHT 1994, BY AMP INCORPORATED*
**ALL INTERNATIONAL RIGHTS RESERVED**
*************************************
***************************************************
*                    *    AMP Connector Catalog No.
*  MODU SYSTEM 50    *           82178
*  VERTICAL          *
*  SURF. MNT         *
**********************
*  rev 3/1/94
*!!!!!!!!!!!!!!!!!!!!!!!!!!!!!!!!!!!!!!!!!
*
* THE FOLLOWING RLC MODELS ARE APPROPRIATE
* FOR EDGE SPEEDS OF 500PS OR SLOWER
*
*!!!!!!!!!!!!!!!!!!!!!!!!!!!!!!!!!!!!!!!!!
*
****************** RLC MODELS ********************
*
*  ROW A = ROW B = MEDIAN
***************IN*OUT*REF
.SUBCKT MS5VSM_AP 1  2   3
************************
R1 1 4 0.009
L4 4 2 3.9NH
C4 4 3 1.1PF
.ENDS
*************
*
********** TRANSMISSION LINE MODELS **************
*
*  ROW A = ROW B = MEDIAN
****************IN*OUT*REF
.SUBCKT MS5VSML_AP 1  2   3
*************************
R1 1 4 0.009
T4 4 3 2 3 Z0=59 TD=66PS
.ENDS
**************
*
*************************************
*COPYRIGHT 1994, BY AMP INCORPORATED*
**ALL INTERNATIONAL RIGHTS RESERVED**
*************************************
***************************************************
*  MODU              *    AMP Connector Catalog No.
*  METRISTAK         *           65790
*  VERTICAL          *
*  10 mm lgth        *
**********************
*  rev 3/1/94
*!!!!!!!!!!!!!!!!!!!!!!!!!!!!!!!!!!!!!!!!!
*
* THE FOLLOWING RLC MODELS ARE APPROPRIATE
* FOR EDGE SPEEDS OF 500PS OR SLOWER
*
*!!!!!!!!!!!!!!!!!!!!!!!!!!!!!!!!!!!!!!!!!
*
****************** RLC MODELS ********************
*
*  ROW A = ROW B = MEDIAN
**************IN*OUT*REF
.SUBCKT MMS10M_AP 1  2   3
************************
R1 1 4 0.039
L4 4 2 2.1NH
C4 4 3 1.8PF
.ENDS
************
*
********** TRANSMISSION LINE MODELS **************
*
*  ROW A = ROW B = MEDIAN
***************IN*OUT*REF
.SUBCKT MMS10ML_AP 1  2   3
*************************
R1 1 4 0.039
T4 4 3 2 3 Z0=35 TD=62PS
.ENDS
*************
*
*************************************
*COPYRIGHT 1994, BY AMP INCORPORATED*
**ALL INTERNATIONAL RIGHTS RESERVED**
*************************************
***************************************************
*                    *    AMP Connector Catalog No.
*     MODU 50/50     *            82643
*     0.390 HIGH     *
*                    *
**********************
*  rev 3/1/94
*!!!!!!!!!!!!!!!!!!!!!!!!!!!!!!!!!!!!!!!!!
*
* THE FOLLOWING RLC MODELS ARE APPROPRIATE
* FOR EDGE SPEEDS OF 500PS OR SLOWER
*
*!!!!!!!!!!!!!!!!!!!!!!!!!!!!!!!!!!!!!!!!!
*
****************** RLC MODELS ********************
*
*  ROW A = ROW B = MEDIAN
** MEDIAN VALUES ********
***************IN*OUT*REF
.SUBCKT MODU39M_AP 1  2   3
************************
R1 1 4 0.016
L4 4 2 3.7NH
C4 4 3 0.7PF
.ENDS
*************
*
*
********** TRANSMISSION LINE MODELS **************
*
*  ROW A = ROW B = MEDIAN
** MEDIAN VALUES *********
****************IN*OUT*REF
.SUBCKT MODU39ML_AP 1  2   3
*************************
R1 1 4 0.016
T4 4 3 2 3 Z0=72 TD=50PS
.ENDS
**************
*
*************************************
*COPYRIGHT 1994, BY AMP INCORPORATED*
**ALL INTERNATIONAL RIGHTS RESERVED**
*************************************
***************************************************
*                    *    AMP Connector Catalog No.
*     MODU 50/50     *            82643
*     0.320 HIGH     *
*                    *
**********************
*  rev 3/1/94
*!!!!!!!!!!!!!!!!!!!!!!!!!!!!!!!!!!!!!!!!!
*
* THE FOLLOWING RLC MODELS ARE APPROPRIATE
* FOR EDGE SPEEDS OF 500PS OR SLOWER
*
*!!!!!!!!!!!!!!!!!!!!!!!!!!!!!!!!!!!!!!!!!
*
****************** RLC MODELS ********************
*
*  ROW A = ROW B = MEDIAN
** MEDIAN VALUES ********
***************IN*OUT*REF
.SUBCKT MD5S32M_AP 1  2   3
************************
R1 1 4 0.014
L4 4 2 3.0NH
C4 4 3 0.7PF
.ENDS
*************
*
********** TRANSMISSION LINE MODELS **************
*
*  ROW A = ROW B = MEDIAN
** MEDIAN VALUES *********
****************IN*OUT*REF
.SUBCKT MD5S32ML_AP 1  2   3
*************************
R1 1 4 0.014
T4 4 3 2 3 Z0=65 TD=45PS
.ENDS
**************
*
*************************************
*COPYRIGHT 1994, BY AMP INCORPORATED*
**ALL INTERNATIONAL RIGHTS RESERVED**
*************************************
***************************************************
*                    *    AMP Connector Catalog No.
*     MODU 50/50     *            82643
*     0.250 HIGH     *
*                    *
**********************
*  rev 3/1/94
*!!!!!!!!!!!!!!!!!!!!!!!!!!!!!!!!!!!!!!!!!
*
* THE FOLLOWING RLC MODELS ARE APPROPRIATE
* FOR EDGE SPEEDS OF 500PS OR SLOWER
*
*!!!!!!!!!!!!!!!!!!!!!!!!!!!!!!!!!!!!!!!!!
*
****************** RLC MODELS ********************
*
*  ROW A = ROW B = MEDIAN
** MEDIAN VALUES ********
***************IN*OUT*REF
.SUBCKT MD5S25M_AP 1  2   3
************************
R1 1 4 0.012
L4 4 2 2.5NH
C4 4 3 0.6PF
.ENDS
*************
*
********** TRANSMISSION LINE MODELS **************
*
*  ROW A = ROW B = MEDIAN
** MEDIAN VALUES *********
****************IN*OUT*REF
.SUBCKT MD5S25ML_AP 1  2   3
*************************
R1 1 4 0.012
T4 4 3 2 3 Z0=65 TD=40PS
.ENDS
**************
*
*************************************
*COPYRIGHT 1994, BY AMP INCORPORATED*
**ALL INTERNATIONAL RIGHTS RESERVED**
*************************************
*****************************************************
*                       *   AMP Connector Catalog No.
*      HDI 4 ROW ST     *           82618
*                       *
*************************
*  rev 3/1/94
*!!!!!!!!!!!!!!!!!!!!!!!!!!!!!!!!!!!!!!!!!
*
* THE FOLLOWING RLC MODELS ARE APPROPRIATE
* FOR EDGE SPEEDS OF 500PS OR SLOWER
*
*!!!!!!!!!!!!!!!!!!!!!!!!!!!!!!!!!!!!!!!!!
*
****************** RLC MODELS ********************
*
** MEDIAN VALUES *******
**************IN*OUT*REF
.SUBCKT HDI4SM_AP 1  2   3
***********************
R1 1 4 0.005
L4 4 5 3.7NH
C5 5 3 1.4PF
L5 5 6 3.7NH
R6 6 2 0.005
.ENDS
************
*
** ROW A ***************
**************IN*OUT*REF
.SUBCKT HDI4SA_AP 1  2   3
***********************
R1 1 4 0.005
L4 4 5 3.9NH
C5 5 3 1.3PF
L5 5 6 3.9NH
R6 6 2 0.005
.ENDS
************
*
** ROW B ***************
**************IN*OUT*REF
.SUBCKT HDI4SB_AP 1  2   3
***********************
R1 1 4 0.005
L4 4 5 3.5NH
C5 5 3 1.5PF
L5 5 6 3.5NH
R6 6 2 0.005
.ENDS
************
*
** ROW C ***************
**************IN*OUT*REF
.SUBCKT HDI4SC_AP 1  2   3
***********************
R1 1 4 0.005
L4 4 5 3.5NH
C5 5 3 1.5PF
L5 5 6 3.5NH
R6 6 2 0.005
.ENDS
************
*
** ROW D ***************
**************IN*OUT*REF
.SUBCKT HDI4SD_AP 1  2   3
***********************
R1 1 4 0.005
L4 4 5 3.9NH
C5 5 3 1.3PF
L5 5 6 3.9NH
R6 6 2 0.005
.ENDS
************
*
********** TRANSMISSION LINE MODELS **************
*
** MEDIAN VALUES ********
***************IN*OUT*REF
.SUBCKT HDI4SML_AP 1  2   3
************************
R1 1 4 0.005
T4 4 3 2 3 Z0=73 TD=105PS
.ENDS
*************
*
** ROW A ****************
***************IN*OUT*REF
.SUBCKT HDI4SAL_AP 1  2   3
************************
R1 1 4 0.005
T4 4 3 2 3 Z0=77 TD=100PS
.ENDS
*************
*
** ROW B ****************
***************IN*OUT*REF
.SUBCKT HDI4SBL_AP 1  2   3
************************
R1 1 4 0.005
T4 4 3 2 3 Z0=68 TD=110PS
.ENDS
*************
*
** ROW C ****************
***************IN*OUT*REF
.SUBCKT HDI4SCL_AP 1  2   3
************************
R1 1 4 0.005
T4 4 3 2 3 Z0=68 TD=110PS
.ENDS
*************
*
** ROW D ****************
***************IN*OUT*REF
.SUBCKT HDI4SDL_AP 1  2   3
************************
R1 1 4 0.005
T4 4 3 2 3 Z0=77 TD=100PS
.ENDS
*************
*
*************************************
*COPYRIGHT 1994, BY AMP INCORPORATED*
**ALL INTERNATIONAL RIGHTS RESERVED**
*************************************
*****************************************************
*                       *   AMP Connector Catalog No.
*     HDI 3 ROW ST      *          82618
*                       *
*************************
*  rev 3/1/94
*!!!!!!!!!!!!!!!!!!!!!!!!!!!!!!!!!!!!!!!!!
*
* THE FOLLOWING RLC MODELS ARE APPROPRIATE
* FOR EDGE SPEEDS OF 500PS OR SLOWER
*
*!!!!!!!!!!!!!!!!!!!!!!!!!!!!!!!!!!!!!!!!!
*
****************** RLC MODELS ********************
*
** MEDIAN VALUES *******
**************IN*OUT*REF
.SUBCKT HDI3SM_AP 1  2   3
***********************
R1 1 4 0.003
L4 4 5 3.8NH
C5 5 3 1.4PF
L5 5 6 3.8NH
R6 6 2 0.003
.ENDS
************
*
** ROW A ***************
**************IN*OUT*REF
.SUBCKT HDI3SA_AP 1  2   3
***********************
R1 1 4 0.003
L4 4 5 3.9NH
C5 5 3 1.3PF
L5 5 6 3.9NH
R6 6 2 0.003
.ENDS
************
*
** ROW B ***************
**************IN*OUT*REF
.SUBCKT HDI3SB_AP 1  2   3
***********************
R1 1 4 0.005
L4 4 5 3.5NH
C5 5 3 1.5PF
L5 5 6 3.5NH
R6 6 2 0.005
.ENDS
************

*
** ROW C ***************
**************IN*OUT*REF
.SUBCKT HDI3SC_AP 1  2   3
***********************
R1 1 4 0.003
L4 4 5 3.9NH
C5 5 3 1.3PF
L5 5 6 3.9NH
R6 6 2 0.003
.ENDS
************
*
********** TRANSMISSION LINE MODELS **************
*
** MEDIAN VALUES ********
***************IN*OUT*REF
.SUBCKT HDI3SML_AP 1  2   3
************************
R1 1 4 0.005
T4 4 3 2 3 Z0=74 TD=100PS
.ENDS
*************
*
** ROW A ****************
***************IN*OUT*REF
.SUBCKT HDI3SAL_AP 1  2   3
************************
R1 1 4 0.005
T4 4 3 2 3 Z0=77 TD=100PS
.ENDS
*************
*
** ROW B ****************
***************IN*OUT*REF
.SUBCKT HDI3SBL_AP 1 2 3
*********************
R1 1 4 0.005
T4 4 3 2 3 Z0=68 TD=110PS
.ENDS
*************
*
** ROW C ****************
***************IN*OUT*REF
.SUBCKT HDI3SCL_AP 1  2   3
************************
R1 1 4 0.005
T4 4 3 2 3 Z0=77 TD=100PS
.ENDS
*************
*
*************************************
*COPYRIGHT 1994, BY AMP INCORPORATED*
**ALL INTERNATIONAL RIGHTS RESERVED**
*************************************
******************************************************
*                        *   AMP Connector Catalog No.
*  CHAMP SERIES I  (ST)  *           82244
*                        *
**************************
*  rev 3/1/94
*!!!!!!!!!!!!!!!!!!!!!!!!!!!!!!!!!!!!!!!!!
*
* THE FOLLOWING RLC MODELS ARE APPROPRIATE
* FOR EDGE SPEEDS OF 500PS OR SLOWER
*
*!!!!!!!!!!!!!!!!!!!!!!!!!!!!!!!!!!!!!!!!!
*
****************** RLC MODELS ********************
*
** MEDIAN VALUES *******
**************IN*OUT*REF
.SUBCKT CHS1SM_AP 1  2   3
***********************
R1 1 4 0.004
L4 4 5 2.6NH
C5 5 3 1.7PF
L5 5 6 2.6NH
R6 6 2 0.004
.ENDS
************
*
** ROW A ***************
**************IN*OUT*REF
.SUBCKT CHS1SA_AP 1  2   3
***********************
R1 1 4 0.005
L4 4 5 3.2NH
C5 5 3 1.7PF
L5 5 6 3.2NH
R6 6 2 0.005
.ENDS
************
*
** ROW B ***************
**************IN*OUT*REF
.SUBCKT CHS1SB_AP 1  2   3
***********************
R1 1 4 0.004
L4 4 5 2.1NH
C5 5 3 1.7PF
L5 5 6 2.1NH
R6 6 2 0.004
.ENDS
************
*
** ROW C ***************
**************IN*OUT*REF
.SUBCKT CHS1SC_AP 1  2   3
***********************
R1 1 4 0.004
L4 4 5 2.1NH
C5 5 3 1.7PF
L5 5 6 2.1NH
R6 6 2 0.004
.ENDS
************
*
** ROW D ***************
**************IN*OUT*REF
.SUBCKT CHS1SD_AP 1  2   3
***********************
R1 1 4 0.005
L4 4 5 3.2NH
C5 5 3 1.7PF
L5 5 6 3.2NH
R6 6 2 0.005
.ENDS
************
*
********** TRANSMISSION LINE MODELS **************
*
** MEDIAN VALUES ********
***************IN*OUT*REF
.SUBCKT CHS1SML_AP 1  2   3
************************
R1 1 4 0.008
T4 4 3 2 3 Z0=56 TD=79PS
.ENDS
*************
*
** ROW A ****************
***************IN*OUT*REF
.SUBCKT CHS1SAL_AP 1  2   3
************************
R1 1 4 0.009
T4 4 3 2 3 Z0=61 TD=84PS
.ENDS
*************
*
** ROW B ****************
***************IN*OUT*REF
.SUBCKT CHS1SBL_AP 1  2   3
************************
R1 1 4 0.007
T4 4 3 2 3 Z0=50 TD=73PS
.ENDS
*************
*
** ROW C ****************
***************IN*OUT*REF
.SUBCKT CHS1SCL_AP 1  2   3
************************
R1 1 4 0.007
T4 4 3 2 3 Z0=50 TD=73PS
.ENDS
*************
*
** ROW D ****************
***************IN*OUT*REF
.SUBCKT CHS1SDL_AP 1  2   3
************************
R1 1 4 0.009
T4 4 3 2 3 Z0=61 TD=84PS
.ENDS
*************
*
*************************************
*COPYRIGHT 1994, BY AMP INCORPORATED*
**ALL INTERNATIONAL RIGHTS RESERVED**
*************************************
******************************************************
*                        *   AMP Connector Catalog No.
*      CHAMP HD  (ST)    *          82244
*     .205 high          *
**************************
*  rev 3/1/94
*!!!!!!!!!!!!!!!!!!!!!!!!!!!!!!!!!!!!!!!!!
*
* THE FOLLOWING RLC MODELS ARE APPROPRIATE
* FOR EDGE SPEEDS OF 500PS OR SLOWER
*
*!!!!!!!!!!!!!!!!!!!!!!!!!!!!!!!!!!!!!!!!!
*
****************** RLC MODELS ********************
*
** MEDIAN VALUES *******
**************IN*OUT*REF
.SUBCKT CHHDSM_AP 1  2   3
***********************
R1 1 4 0.004
L4 4 5 2.2NH
C5 5 3 1.6PF
L5 5 6 2.2NH
R6 6 2 0.004
.ENDS
************
*
** ROW A ***************
**************IN*OUT*REF
.SUBCKT CHHDSA_AP 1  2   3
***********************
R1 1 4 0.004
L4 4 5 2.5NH
C5 5 3 1.6PF
L5 5 6 2.5NH
R6 6 2 0.004
.ENDS
************
*
** ROW B ***************
**************IN*OUT*REF
.SUBCKT CHHDSB_AP 1  2   3
***********************
R1 1 4 0.004
L4 4 5 1.9NH
C5 5 3 1.6PF
L5 5 6 1.9NH
R6 6 2 0.004
.ENDS
************
*
** ROW C ***************
**************IN*OUT*REF
.SUBCKT CHHDSC_AP 1  2   3
***********************
R1 1 4 0.004
L4 4 5 1.9NH
C5 5 3 1.6PF
L5 5 6 1.9NH
R6 6 2 0.004
.ENDS
************
*
** ROW D ***************
**************IN*OUT*REF
.SUBCKT CHHDSD_AP 1  2   3
***********************
R1 1 4 0.005
L4 4 5 2.5NH
C5 5 3 1.6PF
L5 5 6 2.5NH
R6 6 2 0.005
.ENDS
************
*
** ROW E ***************
**************IN*OUT*REF
.SUBCKT CHHDSE_AP 1  2   3
***********************
R1 1 4 0.005
L4 4 5 2.5NH
C5 5 3 1.6PF
L5 5 6 2.5NH
R6 6 2 0.005
.ENDS
************
*
** ROW F ***************
**************IN*OUT*REF
.SUBCKT CHHDSF_AP 1  2   3
***********************
R1 1 4 0.004
L4 4 5 1.9NH
C5 5 3 1.6PF
L5 5 6 1.9NH
R6 6 2 0.004
.ENDS
************
*
** ROW G ***************
**************IN*OUT*REF
.SUBCKT CHHDSG_AP 1  2   3
***********************
R1 1 4 0.004
L4 4 5 1.9NH
C5 5 3 1.6PF
L5 5 6 1.9NH
R6 6 2 0.004
.ENDS
************
*
** ROW H ***************
**************IN*OUT*REF
.SUBCKT CHHDSH_AP 1  2   3
***********************
R1 1 4 0.004
L4 4 5 2.5NH
C5 5 3 1.6PF
L5 5 6 2.5NH
R6 6 2 0.004
.ENDS
************
*
*
********** TRANSMISSION LINE MODELS **************
*
** MEDIAN VALUES ********
***************IN*OUT*REF
.SUBCKT CHHDSML_AP 1  2   3
************************
R1 1 4 0.008
T4 4 3 2 3 Z0=52 TD=74PS
.ENDS
*************
*
** ROW A ****************
***************IN*OUT*REF
.SUBCKT CHHDSAL_AP 1  2   3
************************
R1 1 4 0.008
T4 4 3 2 3 Z0=56 TD=76PS
.ENDS
*************
*
** ROW B ****************
***************IN*OUT*REF
.SUBCKT CHHDSBL_AP 1  2   3
************************
R1 1 4 0.007
T4 4 3 2 3 Z0=49 TD=71PS
.ENDS
*************
*
** ROW C ****************
***************IN*OUT*REF
.SUBCKT CHHDSCL_AP 1  2   3
************************
R1 1 4 0.007
T4 4 3 2 3 Z0=49 TD=71PS
.ENDS
*************
*
** ROW D ****************
***************IN*OUT*REF
.SUBCKT CHHDSDL_AP 1  2   3
************************
R1 1 4 0.008
T4 4 3 2 3 Z0=55 TD=76PS
.ENDS
*************
*
** ROW E ****************
***************IN*OUT*REF
.SUBCKT CHHDSEL_AP 1  2   3
************************
R1 1 4 0.008
T4 4 3 2 3 Z0=55 TD=76PS
.ENDS
*************
*
** ROW F ****************
***************IN*OUT*REF
.SUBCKT CHHDSFL_AP 1  2   3
************************
R1 1 4 0.007
T4 4 3 2 3 Z0=49 TD=71PS
.ENDS
*************
*
** ROW G ****************
***************IN*OUT*REF
.SUBCKT CHHDSGL_AP 1  2   3
************************
R1 1 4 0.007
T4 4 3 2 3 Z0=49 TD=71PS
.ENDS
*************
*
** ROW H ****************
***************IN*OUT*REF
.SUBCKT CHHDSHL_AP 1  2   3
************************
R1 1 4 0.008
T4 4 3 2 3 Z0=56 TD=76PS
.ENDS
*************
*
*************************************
*COPYRIGHT 1994, BY AMP INCORPORATED*
**ALL INTERNATIONAL RIGHTS RESERVED**
*************************************
******************************************************
*                        *   AMP Connector Catalog No.
*  CHAMP 0.050 FH (vert) *         82244
*    18 mm length        *
**************************
*  rev 3/1/94
*!!!!!!!!!!!!!!!!!!!!!!!!!!!!!!!!!!!!!!!!!
*
* THE FOLLOWING RLC MODELS ARE APPROPRIATE
* FOR EDGE SPEEDS OF 500PS OR SLOWER
*
*!!!!!!!!!!!!!!!!!!!!!!!!!!!!!!!!!!!!!!!!!
*
****************** RLC MODELS ********************
*
**** MEDIAN VALUES ****
***************IN*OUT*REF
.SUBCKT C5FV18M_AP 1  2   3
***********************
R1 1 4 0.005
L4 4 5 4.6NH
C5 5 3 0.9PF
L5 5 6 4.6NH
R6 6 2 0.005
.ENDS
*************
*
** ROW A **************
***************IN*OUT*REF
.SUBCKT C5FV18A_AP 1  2   3
***********************
R1 1 4 0.005
L4 4 5 5.1NH
C5 5 3 0.9PF
L5 5 6 5.1NH
R6 6 2 0.005
.ENDS
*************
*
** ROW B **************
***************IN*OUT*REF
.SUBCKT C5FV18B_AP 1  2   3
***********************
R1 1 4 0.005
L4 4 5 4.2NH
C5 5 3 0.9PF
L5 5 6 4.2NH
R6 6 2 0.004
.ENDS
*************
*
** ROW C **************
***************IN*OUT*REF
.SUBCKT C5FV18C_AP 1  2   3
***********************
R1 1 4 0.005
L4 4 5 4.2NH
C5 5 3 0.9PF
L5 5 6 4.2NH
R6 6 2 0.004
.ENDS
*************
*
** ROW D **************
***************IN*OUT*REF
.SUBCKT C5FV18D_AP 1  2   3
***********************
R1 1 4 0.005
L4 4 5 5.1NH
C5 5 3 0.9PF
L5 5 6 5.1NH
R6 6 2 0.005
.ENDS
*************
*
********** TRANSMISSION LINE MODELS **************
*
**** MEDIAN VALUES *****
****************IN*OUT*REF
.SUBCKT C5FV18ML_AP 1  2   3
************************
R1 1 4 0.010
T4 4 3 2 3 Z0=104 TD=89PS
.ENDS
**************
*
** ROW A ***************
****************IN*OUT*REF
.SUBCKT C5FV18AL_AP 1  2   3
************************
R1 1 4 0.010
T4 4 3 2 3 Z0=108 TD=94PS
.ENDS
**************
*
** ROW B ***************
****************IN*OUT*REF
.SUBCKT C5FV18BL_AP 1  2   3
************************
R1 1 4 0.009
T4 4 3 2 3 Z0=99 TD=85PS
.ENDS
**************
*
** ROW C ***************
****************IN*OUT*REF
.SUBCKT C5FV18CL_AP 1  2   3
************************
R1 1 4 0.009
T4 4 3 2 3 Z0=99 TD=85PS
.ENDS
**************
*
** ROW D ***************
****************IN*OUT*REF
.SUBCKT C5FV18DL_AP 1  2   3
************************
R1 1 4 0.010
T4 4 3 2 3 Z0=108 TD=94PS
.ENDS
**************
*
*************************************
*COPYRIGHT 1994, BY AMP INCORPORATED*
**ALL INTERNATIONAL RIGHTS RESERVED**
*************************************
******************************************************
*                        *   AMP Connector Catalog No.
*  CHAMP 0.050 FH (vert) *          82244
*    13 mm length        *
**************************
*  rev 3/1/94
*!!!!!!!!!!!!!!!!!!!!!!!!!!!!!!!!!!!!!!!!!
*
* THE FOLLOWING RLC MODELS ARE APPROPRIATE
* FOR EDGE SPEEDS OF 500PS OR SLOWER
*
*!!!!!!!!!!!!!!!!!!!!!!!!!!!!!!!!!!!!!!!!!
*
****************** RLC MODELS ********************
*
**** MEDIAN VALUES ****
***************IN*OUT*REF
.SUBCKT C5FV13M_AP 1  2   3
***********************
R1 1 4 0.004
L4 4 5 3.5NH
C5 5 3 0.8PF
L5 5 6 3.5NH
R6 6 2 0.004
.ENDS
*************
*
** ROW A **************
***************IN*OUT*REF
.SUBCKT C5FV13A_AP 1  2   3
***********************
R1 1 4 0.005
L4 4 5 3.8NH
C5 5 3 0.7PF
L5 5 6 3.8NH
R6 6 2 0.004
.ENDS
*************
*
** ROW B **************
***************IN*OUT*REF
.SUBCKT C5FV13B_AP 1  2   3
***********************
R1 1 4 0.004
L4 4 5 3.1NH
C5 5 3 0.7PF
L5 5 6 3.1NH
R6 6 2 0.004
.ENDS
*************
*
** ROW C **************
***************IN*OUT*REF
.SUBCKT C5FV13C_AP 1  2   3
***********************
R1 1 4 0.004
L4 4 5 3.1NH
C5 5 3 0.7PF
L5 5 6 3.1NH
R6 6 2 0.004
.ENDS
*************
*
** ROW D **************
***************IN*OUT*REF
.SUBCKT C5FV13D_AP 1  2   3
***********************
R1 1 4 0.005
L4 4 5 3.8NH
C5 5 3 0.8PF
L5 5 6 3.8NH
R6 6 2 0.004
.ENDS
*************
*
********** TRANSMISSION LINE MODELS **************
*
**** MEDIAN VALUES *****
****************IN*OUT*REF
.SUBCKT C5FV13ML_AP 1  2   3
************************
R1 1 4 0.008
T4 4 3 2 3 Z0=96 TD=72PS
.ENDS
**************
*
** ROW A ***************
****************IN*OUT*REF
.SUBCKT C5FV13AL_AP 1  2   3
************************
R1 1 4 0.009
T4 4 3 2 3 Z0=101 TD=76PS
.ENDS
**************
*
** ROW B ***************
****************IN*OUT*REF
.SUBCKT C5FV13BL_AP 1  2   3
************************
R1 1 4 0.008
T4 4 3 2 3 Z0=91 TD=68PS
.ENDS
**************
*
** ROW C ***************
****************IN*OUT*REF
.SUBCKT C5FV13CL_AP 1  2   3
************************
R1 1 4 0.008
T4 4 3 2 3 Z0=91 TD=68PS
.ENDS
**************
*
** ROW D ***************
****************IN*OUT*REF
.SUBCKT C5FV13DL_AP 1  2   3
************************
R1 1 4 0.009
T4 4 3 2 3 Z0=101 TD=76PS
.ENDS
**************
*
*************************************
*COPYRIGHT 1994, BY AMP INCORPORATED*
**ALL INTERNATIONAL RIGHTS RESERVED**
*************************************
******************************************************
*                        *   AMP Connector Catalog No.
*  CHAMP 0.050 FH (vert) *           82244
*     9 mm length        *
**************************
*   rev 3/1/94
*!!!!!!!!!!!!!!!!!!!!!!!!!!!!!!!!!!!!!!!!!
*
* THE FOLLOWING RLC MODELS ARE APPROPRIATE
* FOR EDGE SPEEDS OF 500PS OR SLOWER
*
*!!!!!!!!!!!!!!!!!!!!!!!!!!!!!!!!!!!!!!!!!
*
****************** RLC MODELS ********************
*
**** MEDIAN VALUES ****
***************IN*OUT*REF
.SUBCKT C5FV09M_AP 1  2   3
***********************
R1 1 4 0.004
L4 4 5 2.5NH
C5 5 3 0.7PF
L5 5 6 2.5NH
R6 6 2 0.004
.ENDS
*************
*
** ROW A **************
***************IN*OUT*REF
.SUBCKT C5FV09A_AP 1  2   3
***********************
R1 1 4 0.004
L4 4 5 2.8NH
C5 5 3 0.7PF
L5 5 6 2.8NH
R6 6 2 0.004
.ENDS
*************
*
** ROW B **************
***************IN*OUT*REF
.SUBCKT C5FV09B_AP 1  2   3
***********************
R1 1 4 0.003
L4 4 5 2.2NH
C5 5 3 0.7PF
L5 5 6 2.2NH
R6 6 2 0.003
.ENDS
*************
*
** ROW C **************
***************IN*OUT*REF
.SUBCKT C5FV09C_AP 1  2   3
***********************
R1 1 4 0.003
L4 4 5 2.2NH
C5 5 3 0.7PF
L5 5 6 2.2NH
R6 6 2 0.003
.ENDS
*************
*
** ROW D **************
***************IN*OUT*REF
.SUBCKT C5FV09D_AP 1  2   3
***********************
R1 1 4 0.004
L4 4 5 2.8NH
C5 5 3 0.7PF
L5 5 6 2.8NH
R6 6 2 0.004
.ENDS
*************
*
********** TRANSMISSION LINE MODELS **************
*
**** MEDIAN VALUES *****
****************IN*OUT*REF
.SUBCKT C5FV09ML_AP 1  2   3
************************
R1 1 4 0.007
T4 4 3 2 3 Z0=87 TD=57PS
.ENDS
**************
*
** ROW A ***************
****************IN*OUT*REF
.SUBCKT C5FV09AL_AP 1  2   3
************************
R1 1 4 0.007
T4 4 3 2 3 Z0=92 TD=61PS
.ENDS
**************
*
** ROW B ***************
****************IN*OUT*REF
.SUBCKT C5FV09BL_AP 1  2   3
************************
R1 1 4 0.006
T4 4 3 2 3 Z0=82 TD=53PS
.ENDS
**************
*
** ROW C ***************
****************IN*OUT*REF
.SUBCKT C5FV09CL_AP 1  2   3
************************
R1 1 4 0.006
T4 4 3 2 3 Z0=82 TD=53PS
.ENDS
**************
*
** ROW D ***************
****************IN*OUT*REF
.SUBCKT C5FV09DL_AP 1  2   3
************************
R1 1 4 0.007
T4 4 3 2 3 Z0=92 TD=61PS
.ENDS
**************
*
*************************************
*COPYRIGHT 1994, BY AMP INCORPORATED*
**ALL INTERNATIONAL RIGHTS RESERVED**
*************************************
*****************************************************
*                       *   AMP Connector Catalog No.
*    TBC 6 ROW RA       *           82618
*                       *
*************************
*   rev 3/1/94
*!!!!!!!!!!!!!!!!!!!!!!!!!!!!!!!!!!!!!!!!!
*
* THE FOLLOWING RLC MODELS ARE APPROPRIATE
* FOR EDGE SPEEDS OF 750PS OR SLOWER
*
*!!!!!!!!!!!!!!!!!!!!!!!!!!!!!!!!!!!!!!!!!
*
****************** RLC MODELS ********************
*
**** MEDIAN VALUES ****
*************IN*OUT*REF
.SUBCKT TBC6M_AP 1  2   3
**********************
R1 1 4 0.003
L4 4 5 4.3NH
C5 5 3 2.1PF
L5 5 6 4.3NH
R6 6 2 0.003
.ENDS
***********
*
*** ROW A *************
*************IN*OUT*REF
.SUBCKT TBC6A_AP 1  2   3
**********************
R1 1 4 0.002
L4 4 5 2.6NH
C5 5 3 1.3PF
L5 5 6 2.6NH
R6 6 2 0.002
.ENDS
***********
*
*** ROW B *************
*************IN*OUT*REF
.SUBCKT TBC6B_AP 1  2   3
**********************
R1 1 4 0.002
L4 4 5 2.7NH
C5 5 3 1.8PF
L5 5 6 2.7NH
R6 6 2 0.002
.ENDS
***********
*
*** ROW C *************
*************IN*OUT*REF
.SUBCKT TBC6C_AP 1  2   3
**********************
R1 1 4 0.002
L4 4 5 3.7NH
C5 5 3 2.1PF
L5 5 6 3.7NH
R6 6 2 0.002
.ENDS
***********
*
*** ROW D *************
*************IN*OUT*REF
.SUBCKT TBC6D_AP 1  2   3
**********************
R1 1 4 0.003
L4 4 5 4.6NH
C5 5 3 2.3PF
L5 5 6 4.6NH
R6 6 2 0.003
.ENDS
***********
*
*** ROW E *************
*************IN*OUT*REF
.SUBCKT TBC6E_AP 1  2   3
**********************
R1 1 4 0.003
L4 4 5 5.6NH
C5 5 3 2.5PF
L5 5 6 5.6NH
R6 6 2 0.003
.ENDS
***********
*
*** ROW F *************
*************IN*OUT*REF
.SUBCKT TBC6F_AP 1  2   3
**********************
R1 1 4 0.003
L4 4 5 6.3NH
C5 5 3 2.5PF
L5 5 6 6.3NH
R6 6 2 0.003
.ENDS
***********
*
********** TRANSMISSION LINE MODELS **************
*
*** MEDIAN VALUES ******
**************IN*OUT*REF
.SUBCKT TBC6ML_AP 1  2   3
***********************
R1 1 4 0.005
T4 4 3 2 3 Z0=64 TD=120PS
.ENDS
************
*
*** ROW A **************
**************IN*OUT*REF
.SUBCKT TBC6AL_AP 1  2   3
***********************
R1 1 4 0.003
T4 4 3 2 3 Z0=63 TD=70PS
.ENDS
************
*
*** ROW B **************
**************IN*OUT*REF
.SUBCKT TBC6BL_AP 1  2   3
***********************
R1 1 4 0.003
T4 4 3 2 3 Z0=55 TD=90PS
.ENDS
************
*
*** ROW C **************
**************IN*OUT*REF
.SUBCKT TBC6CL_AP 1  2   3
***********************
R1 1 4 0.004
T4 4 3 2 3 Z0=59 TD=110PS
.ENDS
************
*
*** ROW D **************
**************IN*OUT*REF
.SUBCKT TBC6DL_AP 1  2   3
***********************
R1 1 4 0.005
T4 4 3 2 3 Z0=63 TD=130PS
.ENDS
************
*
*** ROW E **************
**************IN*OUT*REF
.SUBCKT TBC6EL_AP 1  2   3
***********************
R1 1 4 0.006
T4 4 3 2 3 Z0=67 TD=150PS
.ENDS
************
*
*** ROW F **************
**************IN*OUT*REF
.SUBCKT TBC6FL_AP 1  2   3
***********************
R1 1 4 0.005
T4 4 3 2 3 Z0=71 TD=160PS
.ENDS
************
*
*************************************
*COPYRIGHT 1994, BY AMP INCORPORATED*
**ALL INTERNATIONAL RIGHTS RESERVED**
*************************************
*****************************************************
*                       *   AMP Connector Catalog No.
*    TBC 5 ROW RA       *           82618
*                       *
*************************
*  rev 3/1/94
*!!!!!!!!!!!!!!!!!!!!!!!!!!!!!!!!!!!!!!!!!
*
* THE FOLLOWING RLC MODELS ARE APPROPRIATE
* FOR EDGE SPEEDS OF 750PS OR SLOWER
*
*!!!!!!!!!!!!!!!!!!!!!!!!!!!!!!!!!!!!!!!!!
*
****************** RLC MODELS ********************
*
**** MEDIAN VALUES ****
*************IN*OUT*REF
.SUBCKT TBC5M_AP 1  2   3
**********************
R1 1 4 0.002
L4 4 5 4.0NH
C5 5 3 2.0PF
L5 5 6 4.0NH
R6 6 2 0.002
.ENDS
***********
*
*** ROW A *************
*************IN*OUT*REF
.SUBCKT TBC5A_AP 1  2   3
**********************
R1 1 4 0.002
L4 4 5 2.6NH
C5 5 3 1.3PF
L5 5 6 2.6NH
R6 6 2 0.002
.ENDS
***********
*
*** ROW B *************
*************IN*OUT*REF
.SUBCKT TBC5B_AP 1  2   3
**********************
R1 1 4 0.002
L4 4 5 2.7NH
C5 5 3 1.8PF
L5 5 6 2.7NH
R6 6 2 0.002
.ENDS
***********
*
*** ROW C *************
*************IN*OUT*REF
.SUBCKT TBC5C_AP 1  2   3
**********************
R1 1 4 0.002
L4 4 5 3.7NH
C5 5 3 2.1PF
L5 5 6 3.7NH
R6 6 2 0.002
.ENDS
***********
*
*** ROW D *************
*************IN*OUT*REF
.SUBCKT TBC5D_AP 1  2   3
**********************
R1 1 4 0.003
L4 4 5 4.6NH
C5 5 3 2.3PF
L5 5 6 4.6NH
R6 6 2 0.003
.ENDS
***********
*
*** ROW E *************
*************IN*OUT*REF
.SUBCKT TBC5E_AP 1  2   3
**********************
R1 1 4 0.003
L4 4 5 6.2NH
C5 5 3 2.3PF
L5 5 6 6.2NH
R6 6 2 0.003
.ENDS
***********
*
********** TRANSMISSION LINE MODELS **************
*
*** MEDIAN VALUES ******
**************IN*OUT*REF
.SUBCKT TBC5ML_AP 1  2   3
***********************
R1 1 4 0.004
T4 4 3 2 3 Z0=64 TD=110PS
.ENDS
************
*
*** ROW A **************
**************IN*OUT*REF
.SUBCKT TBC5AL_AP 1  2   3
***********************
R1 1 4 0.003
T4 4 3 2 3 Z0=63 TD=70PS
.ENDS
************
*
*** ROW B **************
**************IN*OUT*REF
.SUBCKT TBC5BL_AP 1  2   3
***********************
R1 1 4 0.003
T4 4 3 2 3 Z0=55 TD=90PS
.ENDS
************
*
*** ROW C **************
**************IN*OUT*REF
.SUBCKT TBC5CL_AP 1  2   3
***********************
R1 1 4 0.004
T4 4 3 2 3 Z0=59 TD=110PS
.ENDS
************
*
*** ROW D **************
**************IN*OUT*REF
.SUBCKT TBC5DL_AP 1  2   3
***********************
R1 1 4 0.005
T4 4 3 2 3 Z0=63 TD=130PS
.ENDS
************
*
*** ROW E **************
**************IN*OUT*REF
.SUBCKT TBC5EL_AP 1  2   3
***********************
R1 1 4 0.006
T4 4 3 2 3 Z0=73 TD=150PS
.ENDS
************
*
*************************************
*COPYRIGHT 1994, BY AMP INCORPORATED*
**ALL INTERNATIONAL RIGHTS RESERVED**
*************************************