*****
*SRC=BUF634X;BUF634X;Buffers;Burr-Brown;High Speed
*SYM=ADBUF2
*  BUF634X SIMPLIFIED CIRCUIT MACROMODEL
*  CREATED 1/2/95   SB
*  REV. A
*
*
* CONNECTIONS:    INPUT
*                 |  POSITIVE POWER SUPPLY
*                 |  |  NEGATIVE POWER SUPPLY
*                 |  |  |  OUTPUT
*                 |  |  |  |   
.SUBCKT BUF634X   1  80 90 16 
*
RIN    1     2    200
R1     6    13    500
R2     4     9    500
RO1   15    16    5
RO2   16    17    5
R5    20    90    150
R6    23    90    12E3
R7    94    90    60
R8    98    90    40
R9    80    85    40
R10   80    86    60
*
CP     1     2    1E-10
C1     13    0    1.5E-12
C2     9     0    1.5E-12
CO     16    0    2E-12 
*
Q1     5   2    3   QN 8
Q2     8   2    7   QP 8
Q3     4   8   94   QN 8
Q4     6   5   86   QP 8
Q5    90   9   10   QP 8
Q6    80  13   12   QN 8
Q7    90  10   17   QP 96
Q8    80  12   15   QN 96
Q9    22  21   20   QN 2
Q10    5  21   20   QN 2
Q11   22  24   80   QP 4
Q12    8  22   24   QP 4
*
D1     3    4   DX  8
D2    85    5   DX  8
D3     8   98   DX  8
D4     6    7   DX  8
D5    11   10   DX  2
D6    12   11   DX  2  
D8    21   23   DX  2
D9    80   24   DX  4
D10    7   73   DX  8
D11   73    3   DX  8
*
ISS   80  21  60E-6 
*
*Input Errors
*
VOS     2  102    30E-3
IB     80    1    5E-6
CIN    1     0    6E-12
*
*Input Protection Circuit
*
R29    2   57  1E3
R30   16   58  1E3
Q57   16   57  2   QN  4  
Q58    2   58  16  QN  4
V1    16   57    3
V2     2   58    3
*
*Short Circuit Current Protection
* 
R24   15   14   1.5E3
R25   14   16   1E3
R26   16   18   1E3
R27   18   17   1.5E3
Q35   86   14   16   QN
Q36   94   18   16   QP
*
.MODEL DX D(IS=8E-16)
.MODEL QN NPN(IS=1E-15  BF=200) 
.MODEL QP PNP(IS=1E-15  BF=200)
.ENDS BUF634X
*****
*SRC=INA118;INA118;Inst. Amps;Burr-Brown;High Accuracy
*SYM=INA101
* INA118 = A1_118 + A2_118 + A3_118 OP AMPS + PRECISION RESISTOR NETWORK
* CREATED ON 05/20/94 AT 15:01
* REV.A
*
*
*  INA118 SUB-CIRCUIT
* CONNECTIONS:          NON-INVERTING INPUT
*                       |   INVERTING INPUT
*                       |   |   POSITIVE POWER SUPPLY
*                       |   |   |   NEGATIVE POWER SUPPLY
*                       |   |   |   |   OUTPUT
*                       |   |   |   |   |   REFERENCE
*                       |   |   |   |   |   |   GAIN SENSE 1
*                       |   |   |   |   |   |   |   GAIN SENSE 2
*                       |   |   |   |   |   |   |   |
.SUBCKT INA118          1   2   3   4   5   8   9  10
*
*  A1_118 SUB-CIRCUIT
* CONNECTIONS:          NON-INVERTING INPUT
*                       |   INVERTING INPUT
*                       |   |   POSITIVE POWER SUPPLY
*                       |   |   |   NEGATIVE POWER SUPPLY
*                       |   |   |   |   OUTPUT
*                       |   |   |   |   |
X1                     15  17   3   4  11   A1_118
*
*  A2_118 SUB-CIRCUIT
* CONNECTIONS:          NON-INVERTING INPUT
*                       |   INVERTING INPUT
*                       |   |   POSITIVE POWER SUPPLY
*                       |   |   |   NEGATIVE POWER SUPPLY
*                       |   |   |   |   OUTPUT
*                       |   |   |   |   |
X2                     15  16   3   4  12   A2_118
*
*  A3_118 SUB-CIRCUIT
* CONNECTIONS:          NON-INVERTING INPUT
*                       |   INVERTING INPUT
*                       |   |   POSITIVE POWER SUPPLY
*                       |   |   |   NEGATIVE POWER SUPPLY
*                       |   |   |   |   OUTPUT
*                       |   |   |   |   |
X3                     14  13   3   4   5   A3_118
*
R1    11  13   60.0000K
R2    13   5   59.994K
R3    12  14   60.0000K
R4    14   8   60.0000K
CIN   13  14    4.0000PF
*
R1FB   9  11   25.0000K
CC1   17  11  13.0000PF
R2FB  10  12   25.0000K
CC2   16  12  13.0000PF
CG1    9   0  10.0000PF
CG2   10   0   9.0000PF
*
RCE   17   9   1.7G
*
I1     3  16  DC  15.00E-6
I2     3  17  DC  15.00E-6
IB1CAN 3   1  DC  29.00E-9
IB2CAN 3   2  DC  29.00E-9
Ibal   0   4  DC  31.30E-6
*
D1    15  17      DX
D2    15  16      DX
*
Q1    16   1  10  QX
Q2    17   2   9  QX
*
V1     3  15  DC  1.100
*
.MODEL DX D(IS=1.0E-24)
.MODEL QX NPN(IS=800.0E-18 BF=500)
.ENDS
*INCLUDE BB3.LIB
*****
* A1_118 operational amplifier "macromodel" subcircuit
* 05/20/94 at 09:20
*
* connections:   non-inverting input
*                | inverting input
*                | | positive power supply
*                | | | negative power supply
*                | | | | output
*                | | | | |
.subckt A1_118   1 2 3 4 5
*
c1   11 12 1.340E-12
c2    6  7 10.00E-12
dc    5 53 dx
de   54  5 dx
dlp  90 91 dx
dln  92 90 dx
dp    4  3 dx
egnd 99  0 poly(2)  3 0   4 0  0 .5 .5
fb    7 99 poly(5) vb vc ve vlp vln 0 127.3E6 -130E6 130E6 130E6 -130E6
ga    6  0 11 12 110.0E-6
gcm   0  6 10 99 11.00E-12
iss   3 10 dc 10.00E-6
hlim 90  0 vlim 1K
j1   11  2 10 jx
j2   12  1 10 jx
r2    6  9 100.0E3
rd1   4 11 9.095E3
rd2   4 12 9.095E3
ro1   8  5 50
ro2   7 99 25
rp    3  4 900.0E12
rss  10 99 20.00E6
vb    9  0 dc 0
vc    3 53 dc .6
ve   54  4 dc .6
vlim  7  8 dc 0
vlp  91  0 dc 20
vln   0 92 dc 20
.model dx D(Is=800.0E-18)
.model jx PJF(Is=15.00E-12 Beta=1.209E-3 Vto=-1)
.ends
*****
* A2_118 operational amplifier "macromodel" subcircuit
* 05/20/94 at 09:20
*
* connections:   non-inverting input
*                | inverting input
*                | | positive power supply
*                | | | negative power supply
*                | | | | output
*                | | | | |
.subckt A2_118   1 2 3 4 5
*
c1   11 12 1.340E-12
c2    6  7 10.00E-12
dc    5 53 dx
de   54  5 dx
dlp  90 91 dx
dln  92 90 dx
dp    4  3 dx
egnd 99  0 poly(2)  3 0   4 0  0 .5 .5
fb    7 99 poly(5) vb vc ve vlp vln 0 127.3E6 -130E6 130E6 130E6 -130E6
ga    6  0 11 12 110.0E-6
gcm   0  6 10 99 11.00E-12
iss   3 10 dc 10.00E-6
hlim 90  0 vlim 1K
j1   11  2 10 jx
j2   12  1 10 jx
r2    6  9 100.0E3
rd1   4 11 9.095E3
rd2   4 12 9.095E3
ro1   8  5 50
ro2   7 99 25
rp    3  4 900.0E12
rss  10 99 20.00E6
vb    9  0 dc 0
vc    3 53 dc .6
ve   54  4 dc .6
vlim  7  8 dc 0
vlp  91  0 dc 20
vln   0 92 dc 20
.model dx D(Is=800.0E-18)
.model jx PJF(Is=15.00E-12 Beta=1.209E-3 Vto=-1)
.ends
*****
* A3_118 operational amplifier "macromodel" subcircuit
* created on 05/20/94 at 09:22
*
* connections:   non-inverting input
*                | inverting input
*                | | positive power supply
*                | | | negative power supply
*                | | | | output
*                | | | | |
.subckt A3_118   1 2 3 4 5
*
c1   11 12 3.501E-12
c2    6  7 10.00E-12
dc    5 53 dx
de   54  5 dx
dlp  90 91 dx
dln  92 90 dx
dp    4  3 dx
egnd 99  0 poly(2)  3 0   4 0  0 .5 .5
fb    7 99 poly(5) vb vc ve vlp vln 0 212.2E6 -210E6 210E6 210E6 -210E6
ga    6  0 11 12 75.40E-6
gcm   0  6 10 99 754.0E-12
iee  10  4 dc 9.002E-6
hlim 90  0 vlim 1K
q1   11  2 13 qx
q2   12  1 14 qx
r2    6  9 100.0E3
rc1   3 11 13.26E3
rc2   3 12 13.26E3
re1  13 10 7.514E3
re2  14 10 7.514E3
ree  10 99 22.22E6
ro1   8  5 75
ro2   7 99 75
rp    3  4 103.09E3
vb    9  0 dc 0
vc    3 53 dc 1.400
ve   54  4 dc .8
vlim  7  8 dc 0
vlp  91  0 dc 4.5
vln   0 92 dc 11.5
.model dx D(Is=800.0E-18)
.model qx NPN(Is=800.0E-18 Bf=4.500E3)
.ends
*****
*SRC=INA118E;INA118E;Inst. Amps;Burr-Brown;High Accuracy
*SYM=INA101
* INA118E = A1_118E + A2_118E + A3_118E OP AMPS + PRECISION RESISTOR NETWORK
* CREATED ON 05/20/94 AT 15:01 TLB
* REV.A
*
*
*  INA118E SUB-CIRCUIT
* CONNECTIONS:          NON-INVERTING INPUT
*                       |   INVERTING INPUT
*                       |   |   POSITIVE POWER SUPPLY
*                       |   |   |   NEGATIVE POWER SUPPLY
*                       |   |   |   |   OUTPUT
*                       |   |   |   |   |   REFERENCE
*                       |   |   |   |   |   |   GAIN SENSE 1
*                       |   |   |   |   |   |   |   GAIN SENSE 2
*                       |   |   |   |   |   |   |   |
.SUBCKT INA118E         1   2   3   4   5   8   9  10
*
*  A1_118E SUB-CIRCUIT
* CONNECTIONS:          NON-INVERTING INPUT
*                       |   INVERTING INPUT
*                       |   |   POSITIVE POWER SUPPLY
*                       |   |   |   NEGATIVE POWER SUPPLY
*                       |   |   |   |   OUTPUT
*                       |   |   |   |   |
X1                     15  17   3   4  11   A1_118E
*
*  A2_118E SUB-CIRCUIT
* CONNECTIONS:          NON-INVERTING INPUT
*                       |   INVERTING INPUT
*                       |   |   POSITIVE POWER SUPPLY
*                       |   |   |   NEGATIVE POWER SUPPLY
*                       |   |   |   |   OUTPUT
*                       |   |   |   |   |
X2                     15  16   3   4  12   A2_118E
*
*  A3_118E SUB-CIRCUIT
* CONNECTIONS:          NON-INVERTING INPUT
*                       |   INVERTING INPUT
*                       |   |   POSITIVE POWER SUPPLY
*                       |   |   |   NEGATIVE POWER SUPPLY
*                       |   |   |   |   OUTPUT
*                       |   |   |   |   |
X3                     14  13   3   4   5   A3_118E
*
R1    11  13   60.0000K
R2    13   5   59.994K
R3    12  14   60.0000K
R4    14   8   60.0000K
CIN   13  14    4.0000PF
*
R1FB   9  11   25.0000K
CC1   17  11  13.0000PF
R2FB  10  12   25.0000K
CC2   16  12  13.0000PF
CG1    9   0  10.0000PF
CG2   10   0   9.0000PF
* 
* INA118 "E" - ENHANCEMENTS
* 
RDIFF  1   2   1.0000E10
R1CM   1   0   2.5000E10
R2CM   2   0   2.5000E10
CDIF   1   2   1.0000PF
C1CM   1   0   4.0000PF
C2CM   2   0   4.0000PF
* 
RCE   17   9   1.7G
*
I1     3  16  DC  15.00E-6
I2     3  17  DC  15.00E-6
IB1CAN 3   1  DC  29.00E-9
IB2CAN 3   2  DC  29.00E-9
*
D1    15  17      DX
D2    15  16      DX
*
Q1    16   1  10  QX
Q2    17   2   9  QX
*
V1     3  15  DC  1.100
*
* 
* INA118 "E" - ENHANCEMENTS
* 
* POS INPUT PROTECTION
VS11 3  31 0
AS11  31  0 1 0 SP
FS12 1   4 VS11 1 
FS11 0   3 VS11 1
VS21 32  4 0 
AS21  0  32 1 0 SM
FS22 3   1 VS21 1   
FS21 4   0 VS21 1
* NEG INPUT PROTECTION
VS11_ 3  33 0
AS11_  33  0 2 0 SP
FS12_ 2   4 VS11_ 1
FS11_ 0   3 VS11_ 1
VS21_ 34  4 0 
AS21_  0  34 2 0 SM
FS22_ 3   2 VS21_ 1
FS21_ 4   0 VS21_ 1
* 
.model sp vswitch(ron=300k roff=100g von=14.8 voff=14.7) 
.model sm vswitch(ron=3.5k roff=100g von=-15.1 voff=-15.0)
.MODEL DX D(IS=1.0E-24)
.MODEL QX NPN(IS=800.0E-18 BF=500)
.ENDS
*INCLUDE BB3.LIB
*****
* A1_118E operational amplifier "macromodel" subcircuit
*
* connections:   non-inverting input
*                | inverting input
*                | | positive power supply
*                | | | negative power supply
*                | | | | output
*                | | | | |
.subckt A1_118E  1 2 3 4 5
*
c1   11 12 1.340E-12
c2    6  7 10.00E-12
dc    5 53 dx
de   54  5 dx
dlp  90 91 dx
dln  92 90 dx
dp    4  3 dx
egnd 99  0 poly(2)  3 0   4 0  0 .5 .5
fb    7 99 poly(5) vb vc ve vlp vln 0 127.3E6 -130E6 130E6 130E6 -130E6
ga    6  0 11 12 110.0E-6
gcm   0  6 10 99 11.00E-12
iss   3 10 dc 10.00E-6
hlim 90  0 vlim 1K
j1   11  2 10 jx
j2   12  1 10 jx
r2    6  9 100.0E3
rd1   4 11 9.095E3
rd2   4 12 9.095E3
ro1   8  5 50
ro2   7 99 25
rss  10 99 20.00E6
vb    9  0 dc 0
vc    3 53 dc .6
ve   54  4 dc .6
vlim  7  8 dc 0
vlp  91  0 dc 20
vln   0 92 dc 20
* 
* A1_118 "E" - ENHANCEMENTS
* 
* OUTPUT SUPPLY MIRROR
FQ3 0 20 POLY(1) VLIM 0 1
DQ1 20 21 DX
DQ2 22 20 DX
VQ1 21 0 0
VQ2 22 0 0 
FQ1 3 0 POLY(1) VQ1 0 1
FQ2 0 4 POLY(1) VQ2 0 -1
* 
.model dx D(Is=800.0E-18)
.model jx PJF(Is=15.00E-12 Beta=1.209E-3 Vto=-1)
.ends
*****
* A2_118E operational amplifier "macromodel" subcircuit
*
* connections:   non-inverting input
*                | inverting input
*                | | positive power supply
*                | | | negative power supply
*                | | | | output
*                | | | | |
.subckt A2_118E  1 2 3 4 5
*
c1   11 12 1.340E-12
c2    6  7 10.00E-12
dc    5 53 dx
de   54  5 dx
dlp  90 91 dx
dln  92 90 dx
dp    4  3 dx
egnd 99  0 poly(2)  3 0   4 0  0 .5 .5
fb    7 99 poly(5) vb vc ve vlp vln 0 127.3E6 -130E6 130E6 130E6 -130E6
ga    6  0 11 12 110.0E-6
gcm   0  6 10 99 11.00E-12
iss   3 10 dc 10.00E-6
hlim 90  0 vlim 1K
j1   11  2 10 jx
j2   12  1 10 jx
r2    6  9 100.0E3
rd1   4 11 9.095E3
rd2   4 12 9.095E3
ro1   8  5 50
ro2   7 99 25
rss  10 99 20.00E6
vb    9  0 dc 0
vc    3 53 dc .6
ve   54  4 dc .6
vlim  7  8 dc 0
vlp  91  0 dc 20
vln   0 92 dc 20
* 
* A2_118 "E" - ENHANCEMENTS
* 
* OUTPUT SUPPLY MIRROR
FQ3 0 20 POLY(1) VLIM 0 1
DQ1 20 21 DX
DQ2 22 20 DX
VQ1 21 0 0
VQ2 22 0 0 
FQ1 3 0 POLY(1) VQ1 0 1
FQ2 0 4 POLY(1) VQ2 0 -1
* 
.model dx D(Is=800.0E-18)
.model jx PJF(Is=15.00E-12 Beta=1.209E-3 Vto=-1)
.ends
*****
* A3_118E operational amplifier "macromodel" subcircuit
*
* connections:   non-inverting input
*                | inverting input
*                | | positive power supply
*                | | | negative power supply
*                | | | | output
*                | | | | |
.subckt A3_118E  1 2 3 4 5
*
c1   11 12 3.501E-12
c2    6  7 10.00E-12
dc    5 53 dx
de   54  5 dx
dlp  90 91 dx
dln  92 90 dx
dp    4  3 dx
egnd 99  0 poly(2)  3 0   4 0  0 .5 .5
fb    7 99 poly(5) vb vc ve vlp vln 0 212.2E6 -210E6 210E6 210E6 -210E6
ga    6  0 11 12 75.40E-6
gcm   0  6 10 99 754.0E-12
iee  10  4 dc 9.002E-6
hlim 90  0 vlim 1K
q1   11  2 13 qx
q2   12  1 14 qx
r2    6  9 100.0E3
rc1   3 11 13.26E3
rc2   3 12 13.26E3
re1  13 10 7.514E3
re2  14 10 7.514E3
ree  10 99 22.22E6
ro1   8  5 75
ro2   7 99 75
vb    9  0 dc 0
vc    3 53 dc 1.400
ve   54  4 dc .8
vlim  7  8 dc 0
vlp  91  0 dc 4.5
vln   0 92 dc 11.5
* 
* A3_118 "E" ENHANCEMENTS
*
*OUTPUT SUPPLY MIRROR
FQ3 0 20 POLY(1) VLIM 0 1
DQ1 20 21 DX
DQ2 22 20 DX
VQ1 21 0 0
VQ2 22 0 0 
FQ1 3 0 POLY(1) VQ1 260.8E-6 1
FQ2 0 4 POLY(1) VQ2 261.0E-6 -1
* SUPPLY CURRENT VARIATION
RQ 3 4 1.365E6
* 
.model dx D(Is=800.0E-18)
.model qx NPN(Is=800.0E-18 Bf=4.500E3)
.ends
*****
*SRC=ISO130X;ISO130X;Isolation Amps;Burr-Brown;Precision
*SYM=ISO130X
* ISO130X   SIMPLIFIED CIRCUIT MODEL
* CREATED   12/19/94  SB
* REV. A
*
*
* CONNECTIONS:   VS1
*                |  VIN+
*                |  |  VIN-
*                |  |  |  GND1
*                |  |  |  |  GND2
*                |  |  |  |  |  VOUT-
*                |  |  |  |  |  |  VOUT+
*                |  |  |  |  |  |  |  VS2
.SUBCKT ISO130X  1  2  3  4  5  6  7  8
*
* INPUT STAGE
*
D1   2    1   DMOD
D2   3    1   DMOD
R1   2    9   530
R2   3    10  530
D3   4    9   DMOD
D4   4    10  DMOD
R3   4    9   530k
R4   4    10  530k
I1   4    9   670n
I2   4    10  670n
GVS1 1    4   POLY(1)  22 23  4.37M 0 -445U 0 69.1U 0 -6.34U
R5   1    4   790
*
E1   11   5   POLY(1)  9 10  -3.6M 4
V2   13   11  2.395
V3   12   5   3.61
Q1   13   11  14   QMOD
Q2   17   5   16   QMOD
RE1  14   15  31k
RE2  15   16  31k
I3   15   5   37.356U
R6   12   17  65.7k
TDELAY 17 5 18 5 Z0=65.7k TD=970n
C1   18   5   6.3p
R7   18   19  65.7k
C2   19   5   6.3p
R8   19   20  52.7k
C3   20   22  15.2p
R9   20   21  52.7k
C4   21   5   6.52p
E2   22   5  21  5  1
E3   23   5   POLY(1)  22 5  4.79 -1
R10  22   7   11
R11  23   6   11            
R12  8    5   2.2k
GVS2 8    5   POLY(1)  22 23  8.71M 145U 189U -1.22U -15.8U -127N 1.43U
.MODEL  DMOD  D  IS=8E-13
.MODEL  QMOD  NPN
.ENDS ISO130X
*****
*SRC=IVC102M;IVC102M;Sw Integrator;Burr-Brown;Precision
*SYM=IVC102M
* IVC102M (switched integrator) MULTIPLE POLE/ZERO MACROMODEL
*
* Created 5-30-96 BCB
*
* NOTES : 
*    1.  The transient time for the input to the switches (HOLD and 
*        RESET) should be programmed to 6V/usec.  
*        Complying with this requirment will give you greater
*        success in convergence during transient analysis and
*        a more accurate simulation of the effect of the 200nsec
*        switching speed of the actual switching transistors in 
*        the IVC102.  This is easily implemented with the PULSE
*        command in Spice.  If your input signal to the switches
*        is faster than recommended above, the R-C, low-pass filter
*        on the input of the switch will slow the signal down some-
*        what, however not enough to comply with the data sheet stated
*        switching speeds of 200nsec.
*    2.  To insure proper operation, always establish the initial 
*        bias point for the transient analysis with RESET and 
*        HOLD equal to the potential at COM
*
*
*               AGND
*               |  SWIN (SWITCH IN)
*               |  |  INM
*               |  |  |  C1
*               |  |  |  |  C2
*               |  |  |  |  |  C3
*               |  |  |  |  |  |  VM (NEGATIVE SUPPLY)
*               |  |  |  |  |  |  |  VOUT
*               |  |  |  |  |  |  |  |  S1 (HOLD)
*               |  |  |  |  |  |  |  |  |  S2 (RESET)
*               |  |  |  |  |  |  |  |  |  |  DGND
*               |  |  |  |  |  |  |  |  |  |  |  VP (POSITIVE SUPPLY)
*               |  |  |  |  |  |  |  |  |  |  |  |
.SUBCKT IVC102M 1  2  3  4  5  6  9  10 11 12 13 14
X1  3 1 10 9 14 OPA
*Integration Capacitors
C1 10 4 10E-12 ; CC REMOVED
C2 10 5 30E-12 ; CC REMOVED
C3 10 6 60E-12 ; CC REMOVED
* Switches
*
ASH1 2 3 11 13 SWH
ASH2  2 3 2 13 SWT
ASR  3 10 12 13 SWR
.MODEL SWH VSWITCH(RON=1000G ROFF=1.7E3 VON=2 VOFF=0.8)
.MODEL SWR VSWITCH(RON=1000G ROFF=1.5E3 VON=2 VOFF=0.8)
.MODEL SWT VSWITCH(RON=1000G ROFF=10 VON=0.45 VOFF=0.55)
*.MODEL CC CAP(VC1=25E-6 TC1=-25E-6)
.ENDS
*
*            INM
*            |  INP
*            |  |  OUT
*            |  |  |  VM
*            |  |  |  |  VP
*            |  |  |  |  |
.SUBCKT OPA  2  3  6  4  7
* Amp input stage (2nd pole @ 35M Hz)
*
J11 15 2 14 JX
J12 16 13 14 JX
C12 15 16 18.2E-12
R13 15 7 796
R14 16 7 796
ISS 14 4 1.11E-3
VOS 13 3 0.5E-3
G1 2 30 POLY(3)  15 2   14 2   30 2  0 1E-12 1E-12 1E-12
G2 13 30 POLY(3)  16 13   14 13   30 13  0 1E-12 1E-12 1E-12
* Amp gain stage (130dB) and first pole (@ 4.20K HZ)
*
R27 7 21 2.45E9
R28 4 21 2.45E9
C22 7 21 100E-12
C23 4 21 100E-12
G21 7 21 POLY(1) 15 16 1.451E-3 1.256E-3
G22 21 4 POLY(1) 16 15 1.451E-3 1.256E-3
I22 7 13 2.2E-3
V21 7 22 1.885
V22 23 4 1.885
D21 21 22 DX
D22 23 21 DX
* Amp correction current and output stage
*
IPS 7 30 9E-3
RPS 7 30 100E3
R9 7 71 100E3
R10 4 71 100E3
D91 21 6 DX
D92 6 21 DX
D93 7 94 DX
D94 7 95 DX
D95 4 94 DY
D96 4 95 DY
G91 7 6 21 7 .020387
G92 4 6 21 4 .020387
G95 94 4 6 21 .020387
G96 95 4 21 6 .020387
R91 7 6 49.051
R92 4 6 49.051
* Models
.MODEL JX NJF(BETA=.788E-3 VTO=-2 IS=5E-14)
.MODEL DX D(IS=1E-15)
.MODEL DY D(IS=1E-15  BV=50)
.ENDS
*****
*SRC=LOG100M;LOG100M;Inst. Amps;Burr-Brown;Log/Log Ratio
*SYM=LOG100M
* LOG100M LOGARITHMIC AND LOG RATIO AMPLIFIER "MACROMODEL" SUBCIRCUIT
* CREATED 8/8/95  BCB
*
*
*                
* CONNECTIONS:   I1 INPUT  
*                |  K=1
*                |  |  K=3
*                |  |  |  K=5
*                |  |  |  |  POSITIVE POWER SUPPLY
*                |  |  |  |  |  OUTPUT
*                |  |  |  |  |  |  NEGATIVE POWER SUPPLY
*                |  |  |  |  |  |  |  COMMON
*                |  |  |  |  |  |  |  |  I2 INPUT
*                |  |  |  |  |  |  |  |  |
.SUBCKT LOG100M  1  3  4  5  6  7  9 10 14
X1 10 1 6 9 23 10 OPA1
X2 10 14 6 9 7 OPA2
Q1 1 2 21 QX
Q2 14 10 21 QX

R1 2 3 15E3
R2 2 3 15E3
R3 2 4 48E3
R4 2 4 48E3
R5 2 5 78E3
R6 2 5 78E3
R7 10 2 490

R8 23 21 6.5E3
C8 1 23 10P

D1 21 2 DX
DD1 1 10 DX
D2 21 10 DX
DD2 14 10 DX

.MODEL DX D(BV=2)
.MODEL QX NPN
+IS=.29FA      BF=378         BR=1           NF=.99         NR=.99
+EG=1.2056     ISE=.12FA      NE=1.38        ISC=2.05FA     NC=1.01
+VAF=101       VAR=6.79       IKF=1.59MA     IKR=6MA        RB=157 
+IRB=60UA      RBM=65         RE=3.93        RC=100
+CJE=0.5PF     VJE=0.77       MJE=0.3     
+CJC=0.2PF     VJC=0.64       MJC=0.425
+CJS=1.5PF     VJS=0.58       MJS=0.5      
+FC=0.0        XCJC=1.0	      TF=300PS      TR=1.0US       XTF=1.0        
+VTF=0.0       ITF=10MA	      PTF=5         XTB=.006       XTI=2.33       
.ENDS
*
.SUBCKT OPA1  3 2 7 4 6 10
* INPUT STAGE
J1 13 2 12 PJ
J2 14 3 12 PJ
R3 4 13 583.56
R4 4 14 583.56
IEE 7 12 1E-3
G51 2 4 POLY(2)  13 2   12 2  0 1E-12 1E-12
G52 3 4 POLY(2)  14 3   12 3  0 1E-12 1E-12

* GAIN STAGE (gain=103dB, pole=0.5Hz)
V21 10 21 0.1
D21 20 21 DX
V22 22 4 0.1
D22 22 20 DX
G21 7 20 POLY(1)  13 14   2.092E-3   3E-3
G22 4 20 POLY(1)  13 14  -2.092E-3   3E-3
R27 7 20 47.79E6
R28 4 20 47.79E6
C22 7 20 6.6E-9
C23 4 20 6.6E-9

* OUTPUT STAGE
D3 20 71 DX
D4 72 20 DX
D5 7 73 DX
D6 7 74 DX
D7 4 73 DZ
D8 4 74 DZ
G14 73 4 6 20 20E-3
G13 74 4 20 6 20E-3
V3 71 6 0.387
V4 6 72 0.387
G11 6 7 7 20   20E-3
G12 4 6 20  4  20E-3
R23 7 6 50
R24 4 6 50

.MODEL DX D(IS=1E-15)
.MODEL PJ PJF(BETA=1.67E-3 VTO=-2 IS=5E-13)
.MODEL DZ D(IS=1E-15 BV=50)
.ENDS
*
.SUBCKT OPA2  3 2 7 4 6
* INPUT STAGE
J1 13 2 12 PJ
J2 14 3 12 PJ
R3 4 13 583.56
R4 4 14 583.56
IEE 7 12 1E-3
G51 2 4 POLY(2)  13 2   12 2  0 1E-12 1E-12
G52 3 4 POLY(2)  14 3   12 3  0 1E-12 1E-12

* GAIN STAGE (gain=103dB, pole=0.5Hz)
V21 7 21 3.432
D21 20 21 DX
V22 22 4 3.432
D22 22 20 DX
G21 7 20 POLY(1)  13 14   2.092E-3   3E-3
G22 4 20 POLY(1)  13 14  -2.092E-3   3E-3
R27 7 20 47.79E6
R28 4 20 47.79E6
C22 7 20 6.6E-9
C23 4 20 6.6E-9

* OUTPUT STAGE
D3 20 71 DX
D4 72 20 DX
D5 7 73 DX
D6 7 74 DX
D7 4 73 DZ
D8 4 74 DZ
G14 73 4 6 20 20E-3
G13 74 4 20 6 20E-3
V3 71 6 0.387
V4 6 72 0.387
G11 6 7 7 20   20E-3
G12 4 6 20  4  20E-3
R23 7 6 50
R24 4 6 50

.MODEL DX D(IS=1E-15)
.MODEL PJ PJF(BETA=1.67E-3 VTO=-2 IS=5E-13)
.MODEL DZ D(IS=1E-15 BV=50)
.ENDS
*****
*SRC=MPC102X1;MPC102X1;Multiplexors;Burr-Brown;2x1 Video Mux
*SYM=MPC102X1
* MPC102X1  DUAL 2X1 VIDEO MULTIPLEXER MACROMODEL
* REV.A  1/10/95  KL/SB
*
* CONNECTIONS:   IN 1
*                | IN 2
*                | | +Vcc
*                | | | IN 3
*                | | | | IN 4
*                | | | | | SELECT 4
*                | | | | | |  SELECT 3 
*                | | | | | |  |  OUT 2
*                | | | | | |  |  |  -Vcc
*                | | | | | |  |  |  |  OUT 1
*                | | | | | |  |  |  |  |  SELECT 2
*                | | | | | |  |  |  |  |  |  SELECT 1
.SUBCKT MPC102X1 1 3 4 5 7 8  9 10 11 12 13 14
*
X1  1  4  12  11  14  MUX1 ; Channel 1 into Out 1
X2  3  4  12  11  13  MUX1 ; Channel 2 into Out 1
X3  5  4  10  11   9  MUX1 ; Channel 3 into Out 2
X4  7  4  10  11   8  MUX1 ; Channel 4 into Out 2
*
C208    8  0   2E-12
C209    9  0   2E-12
C210   10  0   2E-12
C212   12  0   2E-12
C213   13  0   2E-12
C214   14  0   2E-12
*
.ENDS MPC102X1
*
*
* ONE OUT OF FOUR CHANNELS OF THE MPC102X1 MODEL
*            INPUT
*            |  NEGATIVE SUPPLY
*            |  |  OUTPUT
*            |  |  |  POSITIVE SUPPLY
*            |  |  |  |  SELECT
*            |  |  |  |  |
*            |  |  |  |  |
.SUBCKT MUX1 1 10 11 12 14
V22  22  0  1.5
V27  12 27  1.5
V28  28 10  1.5
*
G21  25 26  14 22  -87E-6
*
C23  23  0  2.0E-12
C24  23 11  0.1E-12
C25  25  0  0.6E-12
C26  26  0  0.6E-12
*
R21  14  0  40E3
R22  22  0  1E9
R23  23  0  1.3E6
R24  23  1  145
*
Q21  10 10 25  NI
Q22  26 26 12  NI
Q23  10 23 25  PI
Q24  12 23 26  NI
Q25  27 25 11  NI 4
Q26  28 26 11  PI 4
*
.MODEL NI NPN
.MODEL PI PNP
*
.ENDS MUX1
*****
*SRC=MPC104X1;MPC104X1;Multiplexors;Burr-Brown;2x1 Video Mux
*SYM=MPC104X1
* MPC104X1  2X1 VIDEO MULTIPLEXER MACROMODEL
* REV.A   1/10/95   KL/SB
*
* CONNECTIONS:   IN1
*                |  +Vcc
*                |  |  IN2
*                |  |  |  SELECT2
*                |  |  |  |  OUT
*                |  |  |  |  |  -Vcc
*                |  |  |  |  |  |  SELECT 1
*                |  |  |  |  |  |  |
.SUBCKT MPC104X1 1  3  4  5  6  7  8 
*
X1  1  3  6  7  8  MUX1 ; One out of two channels
X2  4  3  6  7  5  MUX1 ; One out of two channels
*
C208    8  0   2E-12
C205    5  0   2E-12
C206    6  0   2E-12
*
.ENDS MPC104X1
*****
* ONE OUT OF TWO CHANNELS OF THE VIDEO SIGNAL MULTIPLEXER
*            INPUT
*            |  NEGATIVE SUPPLY
*            |  |  OUTPUT
*            |  |  |  POSITIVE SUPPLY
*            |  |  |  |  SELECT
*            |  |  |  |  |
*            |  |  |  |  |
.SUBCKT MUX1 1 10 11 12 14
V22  22  0  1.5
V27  12 27  1.5
V28  28 10  1.5
*
G21  25 26  14 22  -87E-6
*
C23  23  0  2.0E-12
C24  23 11  0.1E-12
C25  25  0  0.6E-12
C26  26  0  0.6E-12
*
R21  14  0  40E3
R22  22  0  1E9
R23  23  0  1.3E6
R24  23  1  145
*
Q21  10 10 25  NI
Q22  26 26 12  NI
Q23  10 23 25  PI
Q24  12 23 26  NI
Q25  27 25 11  NI 4
Q26  28 26 11  PI 4
*
.MODEL NI NPN
.MODEL PI PNP
*
.ENDS MUX1
*****
*SRC=OPA129B;OPA129B;Opamps;Burr-Brown;Low Bias Current, Difet
*SYM=BBOPAMP
* OPA129 operational amplifier "macromodel" subcircuit
* created using Parts release 5.2 on 12/15/94 at 14:58
* REV.A    SB
*
*
* connections:   non-inverting input
*                | inverting input
*                | | positive power supply
*                | | | negative power supply
*                | | | | output
*                | | | | |
.subckt OPA129B  1 2 3 4 5
*
c1   11 12 4.000E-12
c2    6  7 2.204E-12
dc    5 53 dx
de   54  5 dx
dlp  90 91 dx
dln  92 90 dx
dp    4  3 dx
egnd 99  0 poly(2)  3 0   4 0  0 .5 .5
fb    7 99 poly(5) vb vc ve vlp vln 0 192.5E6 -20E6 20E6 20E6 -20E6
ga    6  0 11 12 314.2E-6
gcm   0  6 10 99 395.5E-12
iss   3 10 dc 80.00E-6
hlim 90  0 vlim 1K
j1   11  2 10 jx
j2   12  1 10 jx
r2    6  9 100.0E3
rd1   4 11 3.183E3
rd2   4 12 3.183E3
ro1   8  5 25
ro2   7 99 75
rp    3  4 25.00E3
rss  10 99 2.500E6
vb    9  0 dc 0
vc    3 53 dc 2
ve   54  4 dc 2
vlim  7  8 dc 0
vlp  91  0 dc 22.00E-3
vln   0 92 dc 22.00E-3
.model dx D(Is=800.0E-18)
.model jx PJF(Is=20.00E-15 Beta=616.8E-6 Vto=-1)
.ends OPA129
*****
*SRC=OPA129EB;OPA129EB;Opamps;Burr-Brown;Low Bias Current, Difet
*SYM=BBOPAMP
* OPA129E operational amplifier "macromodel" subcircuit
* "E" is enhanced model
* created using Parts release 5.2 on 12/15/94 at 14:58
* REV. A   SB
*
*
* connections:   non-inverting input
*                | inverting input
*                | | positive power supply
*                | | | negative power supply
*                | | | | output
*                | | | | |
.subckt OPA129EB 1 2 3 4 5
*
c1   11 12 4.000E-12
c2    6  7 2.204E-12
dc    5 53 dx
de   54  5 dx
dlp  90 91 dx
dln  92 90 dx
dp    4  3 dx
egnd 99  0 poly(2)  3 0   4 0  0 .5 .5
fb    7 99 poly(5) vb vc ve vlp vln 0 192.5E6 -20E6 20E6 20E6 -20E6
ga    6  0 11 12 314.2E-6
gcm   0  6 10 99 395.5E-12
iss   3 10 dc 80.00E-6
hlim 90  0 vlim 1K
j1   11  2 10 jx
j2   12  1 10 jx
g11   2  4 poly(4)  10 2   11 2   4 2   66 0  0 1E-12 1E-12 1E-12 100E-9
g21   1  4 poly(4)  10 1   12 1   4 1   68 0  0 1E-12 1E-12 1E-12 100E-9
r2    6  9 100.0E3
rd1   4 11 3.183E3
rd2   4 12 3.183E3
ro1   8  5 25
ro2   7 99 75
rp    3  4 25.00E3
rss  10 99 2.500E6
vb    9  0 dc 0
vc    3 53 dc 2
ve   54  4 dc 2
vlim  7  8 dc 0
vlp  91  0 dc 22.00E-3
vln   0 92 dc 22.00E-3
*
* OPA129 "E" ENHANCEMENTS
*
* Output Supply Mirror
fq3     0  20  poly(1)  vlim 0 1
dq1    20  21  dx
dq2    22  20  dx
vq1    21   0  0
vq2    22   0  0
fq1     3   0  poly(1) vq1  0.700E-3   1
fq2     0   4  poly(1) vq2  0.700E-3  -1
* Diff Input Capacitance
cdif    1   2  1.0E-12
* Common Mode Input Capacitance
c1cm    1  99  1.0E-12
c2cm    2  99  1.0E-12
* Input Voltage Noise
vn1    61   0  0.6
vn2     0  62  0.6
dn1    61  63  dy
dn2    63  62  dy
en     64   1  63  0  1
* Input Current Noise
rn1     0  65  60.3865
rn2    65  66  60.3865
rn3    66   0  120.773
rn4     0  67  60.3865
rn5    67  68  60.3865
rn6    68   0  120.773
*
.model dy D(IS=1.9E-16 AF=1 KF=5.643E-16)   
.model dx D(Is=800.0E-18)
.model jx PJF(Is=20.00E-15 Beta=616.8E-6 Vto=-1)
.ends OPA129E
*****
*SRC=OPA130B;OPA130B;Opamps;Burr-Brown;JFET, Precision
*SYM=BBOPAMP
* OPA130 operational amplifier "macromodel" subcircuit
* Rev. A  SB 7/20/96
*
*
* connections:   non-inverting input
*                | inverting input
*                | | positive power supply
*                | | | negative power supply
*                | | | | output
*                | | | | |
.SUBCKT OPA130B  1 2 3 4 5
*
C1   11 12 4.330E-12
C2    6  7 15.00E-12
CSS  10 99 1.000E-30
DC    5 53 DX
DE   54  5 DX
DLP  90 91 DX
DLN  92 90 DX
DP    4  3 DX
EGND 99  0 POLY(2)  3 0   4 0  0 .5 .5
FB    7 99 POLY(5) VB VC VE VLP VLN 0 2.386E9 -2E9 2E9 2E9 -2E9
GA    6  0 11 12 94.25E-6
GCM   0  6 10 99 530.1E-12
ISS   3 10 DC 30.00E-6
HLIM 90  0 VLIM 1E3
J1   11  2 10 JX
J2   12  1 10 JX
R2    6  9 100.0E3
RD1   4 11 10.61E3
RD2   4 12 10.61E3
RO1   8  5 50
RO2   7 99 25
RP    3  4 56.25E3
RSS  10 99 6.667E6
VB    9  0 DC 0
VC    3 53 DC 1.500
VE   54  4 DC 1
VLIM  7  8 DC 0
VLP  91  0 DC 18
VLN   0 92 DC 18
.MODEL DX D(IS=800.0E-18)
.MODEL JX PJF(IS=2.500E-12 BETA=296.1E-6 VTO=-1)
.ENDS
*****
*SRC=OPA131B;OPA131B;Opamps;Burr-Brown;JFET, Gen. Purpose
*SYM=BBOPAMP
* OPA131 operational amplifier "macromodel" subcircuit
* REV. A    SB
*
*
* connections:   non-inverting input
*                | inverting input
*                | | positive power supply
*                | | | negative power supply
*                | | | | output
*                | | | | |
.subckt OPA131B  1 2 3 4 5
*
c1   11 12 4.197E-12
c2    6  7 18.00E-12
css  10 99 7.200E-12
dc    5 53 dx
de   54  5 dx
dlp  90 91 dx
dln  92 90 dx
dp    4  3 dx
egnd 99  0 poly(2)  3 0   4 0  0 .5 .5
fb    7 99 poly(5) vb vc ve vlp vln 0 127.3E6 -130E6 130E6 130E6 -130E6
ga    6  0 11 12 452.4E-6
gcm   0  6 10 99 45.24E-9
iss   3 10 dc 252.0E-6
hlim 90  0 vlim 1K
j1   11  2 10 jx
j2   12  1 10 jx
r2    6  9 100.0E3
rd1   4 11 2.210E3
rd2   4 12 2.210E3
ro1   8  5 50
ro2   7 99 25
rp    3  4 20.00E3
rss  10 99 793.7E3
vb    9  0 dc 0
vc    3 53 dc 2.500
ve   54  4 dc 2.500
vlim  7  8 dc 0
vlp  91  0 dc 20
vln   0 92 dc 20
.model dx D(Is=800.0E-18)
.model jx PJF(Is=2.500E-12 Beta=812.1E-6 Vto=-1)
.ends  OPA131
*****
*SRC=OPA131EB;OPA131EB;Opamps;Burr-Brown;JFET, Gen. Purpose
*SYM=BBOPAMP
* OPA131E "Enhanced" operational amplifier "macromodel" subcircuit
* REV.A     SB - model includes input bias current correction,
*                voltage and current noise.
*
*
* connections:   non-inverting input
*                | inverting input