**********
* USERS SHOULD VERY CAREFULLY NOTE THE FOLLOWING FACTORS REGARDING THESE
* MODELS:
*
*   THE MODELS ARE VALID ONLY AT AN AMBIENT TEMPERATURE OF 25 DEGREES
*   CENTIGRADE, AND AT SUPPLY VOLTAGES OF +/-5VDC.
*
*   THIS SIMPLIFIED CIRCUIT USES ACTUAL TRANSISTORS INSTEAD OF
*   MATHEMATICAL MODELING IN ORDER TO MORE CLOSELY MODEL DEVICE
*   PERFORMANCE.  AS SUCH, REASONABLY ACCURATE SIMULATIONS OF GAIN/PHASE,
*   PULSE RESPONSE, DISTORTION, AND NOISE ARE POSSIBLE.  THIS CAPABILITY
*   CAN BE ESPECIALLY VALUABLE TO DESIGNERS OF VIDEO AND RF SYSTEMS.
*
*   THIS SIMPLIFIED CIRCUIT IS BEING SUPPLIED TO USERS AS AN AID TO
*   CIRCUIT DESIGNS.  WHILE IT REFLECTS REASONABLY CLOSE SIMILARITY
*   TO THE ACTUAL DEVICE IN TERMS OF PERFORMANCE, IT IS NOT SUGGESTED
*   AS A REPLACEMENT FOR BREADBOARDING.  SIMULATION SHOULD BE USED AS
*   A FORERUNNER OR A SUPPLEMENT TO TRADITIONAL LAB TESTING.
*
*   MODEL USERS ARE HEREBY NOTIFIED THAT THESE MODELS ARE SUPPLIED
*   "AS IS", WITH NO DIRECT OR IMPLIED RESPONSIBILITY ON THE PART OF
*   BURR-BROWN FOR THEIR OPERATION WITHIN A CUSTOMER CIRCUIT OR SYSTEM.
* YOUR FEEDBACK AND SUGGESTIONS ON THESE (AND FUTURE) MODELS WILL BE
* APPRECIATED!
*
* BURR-BROWN CORPORATION
* 6730 S. TUCSON BLVD.
* TUCSON, ARIZONA 85706
* (602) 746-1111
*
**********
*SRC=OPA101;OPA101B;Opamps;Burr-Brown;Low Noise, 9nV/RTHz
*SYM=BBOPAMP
* OPA101 
* CONNECTIONS:   NON-INVERTING INPUT
*                | INVERTING INPUT
*                | | POSITIVE POWER SUPPLY
*                | | | NEGATIVE POWER SUPPLY
*                | | | | OUTPUT
*                | | | | |
.SUBCKT OPA101B  1 2 3 4 5
*
C1   11 12 5.774E-12
C2    6  7 20.00E-12
DC    5 53 DX
DE   54  5 DX
DLP  90 91 DX
DLN  92 90 DX
DP    4  3 DX
EGND 99  0 POLY(2) 3 0 4 0 0 .5 .5
FB    7 99 POLY(5) VB VC VE VLP VLN 0 210.4E3 -20E3 20E3 20E3 -20E3
GA    6  0 11 12 2.513E-3
GCM   0  6 10 99 14.13E-9
ISS  10  4 DC 130.0E-6
HLIM 90  0 VLIM 1K
J1   11  2 10 JX
J2   12  1 10 JX
R2    6  9 100.0E3
RD1   3 11 397.9
RD2   3 12 397.9
RO1   8  5 25
RO2   7 99 475
RP    3  4 5.172E3
RSS  10 99 1.538E6
VB    9  0 DC 0
VC    3 53 DC 2
VE   54  4 DC 2
VLIM  7  8 DC 0
VLP  91  0 DC 45
VLN   0 92 DC 45
.MODEL DX D(IS=800.0E-18)
.MODEL JX NJF(IS=6.000E-12 BETA=24.30E-3 VTO=-1)
.ENDS
**********
*SRC=OPA101E;OPA101EB;Opamps;Burr-Brown;Low Noise, 9nV/RTHz
*SYM=BBOPAMP
* OPA101E 
* CONNECTIONS:   NON-INVERTING INPUT
*                | INVERTING INPUT
*                | | POSITIVE POWER SUPPLY
*                | | | NEGATIVE POWER SUPPLY
*                | | | | OUTPUT
*                | | | | |
.SUBCKT OPA101EB 1 2 3 4 5
*
C1   11 12 5.774E-12
C2    6  7 20.00E-12
DC    5 53 DX
DE   54  5 DX
DLP  90 91 DX
DLN  92 90 DX
DP    4  3 DX
EGND 99  0 POLY(2) 3 0 4 0 0 .5 .5
FB    7 99 POLY(5) VB VC VE VLP VLN 0 210.4E3 -20E3 20E3 20E3 -20E3
GA    6  0 11 12 2.513E-3
GCM   0  6 10 99 14.13E-9
ISS  10  4 DC 130.0E-6
HLIM 90  0 VLIM 1K
J1   11  2 10 JX
J2   12  1 10 JX
R2    6  9 100.0E3
RD1   3 11 397.9
RD2   3 12 397.9
RO1   8  5 25
RO2   7 99 475
*  RP    3  4 5.172E3
RSS  10 99 1.538E6
VB    9  0 DC 0
VC    3 53 DC 2
VE   54  4 DC 2
VLIM  7  8 DC 0
VLP  91  0 DC 45
VLN   0 92 DC 45
**
* OPA101 "E" - ENHANCEMENTS
**
* OUTPUT SUPPLY MIRROR
FQ3   0 20 POLY(1) VLIM 0  1
DQ1  20 21 DX
DQ2  22 20 DX
VQ1  21  0 0
VQ2  22  0 0
FQ1   3  0 POLY(1) VQ1  4.157E-3  1
FQ2   0  4 POLY(1) VQ2  4.157E-3 -1
* QUIESCIENT CURRENT
RQ    3  4  2.0E4
* DIFF INPUT CAPACITANCE
CDIF  1  2  1.0E-12
* COMMON MODE INPUT CAPACITANCE
C1CM  1  99 1.5E-12
C2CM  2  99 1.5E-12
**
.MODEL DX D(IS=800.0E-18)
.MODEL JX NJF(IS=6.000E-12 BETA=24.30E-3 VTO=-1)
.ENDS
**********
*SRC=OPA1013;OPA1013B;Opamps;Burr-Brown;Precision, Single Supply
*SYM=BBOPAMP
* OPA1013 Op-Amp 
* CONNECTIONS:   NON-INVERTING INPUT
*                | INVERTING INPUT
*                | | POSITIVE POWER SUPPLY
*                | | | NEGATIVE POWER SUPPLY
*                | | | | OUTPUT
*                | | | | |
.SUBCKT OPA1013B 1 2 3 4 5
*
C1   11 12 6.062E-12
C2    6  7 21.00E-12
DC    5 53 DX
DE   54  5 DX
DLP  90 91 DX
DLN  92 90 DX
DP    4  3 DX
EGND 99  0 POLY(2) 3 0 4 0 0 .5 .5
FB    7 99 POLY(5) VB VC VE VLP VLN 0 1.624E9 -2E9 2E9 2E9 -2E9
GA    6  0 11 12 92.36E-6
GCM   0  6 10 99 130.5E-12
IEE   3 10 DC 8.418E-6
HLIM 90  0 VLIM 1K
Q1   11  2 13 QX
Q2   12  1 14 QX
R2    6  9 100.0E3
RC1   4 11 10.83E3
RC2   4 12 10.83E3
RE1  13 10 4.659E3
RE2  14 10 4.659E3
REE  10 99 23.76E6
RO1   8  5 120
RO2   7 99 30
RP    3  4 87.82E3
VB    9  0 DC 0
VC    3 53 DC 1
VE   54  4 DC 1
VLIM  7  8 DC 0
VLP  91  0 DC 30
VLN   0 92 DC 30
.MODEL DX D(IS=800.0E-18)
.MODEL QX PNP(IS=800.0E-18 BF=466.7)
.ENDS
**********
*SYM=BBOPAMP
* OPA1013E Op-Amp 
*
* CONNECTIONS:   NON-INVERTING INPUT
*                | INVERTING INPUT
*                | | POSITIVE POWER SUPPLY
*                | | | NEGATIVE POWER SUPPLY
*                | | | | OUTPUT
*                | | | | |
.SUBCKT OPA1013E 1 2 3 4 5
*
C1   11 12 6.062E-12
C2    6  7 21.00E-12
DC    5 53 DX
DE   54  5 DX
DLP  90 91 DX
DLN  92 90 DX
DP    4  3 DX
EGND 99  0 POLY(2) 3 0 4 0 0 .5 .5
FB    7 99 POLY(5) VB VC VE VLP VLN 0 1.624E9 -2E9 2E9 2E9 -2E9
GA    6  0 11 12 92.36E-6
GCM   0  6 10 99 130.5E-12
IEE   3 10 DC 8.418E-6
HLIM 90  0 VLIM 1K
Q1   11  2 13 QX
Q2   12  1 14 QX
R2    6  9 100.0E3
RC1   4 11 10.83E3
RC2   4 12 10.83E3
RE1  13 10 4.659E3
RE2  14 10 4.659E3
REE  10 99 23.76E6
RO1   8  5 120
RO2   7 99 30
*  RP    3  4 87.82E3
VB    9  0 DC 0
VC    3 53 DC 1
VE   54  4 DC 1
VLIM  7  8 DC 0
VLP  91  0 DC 30
VLN   0 92 DC 30
*
* OPA1013 "E" - ENHANCEMENTS
*
* OUTPUT SUPPLY MIRROR
FQ3   0 20 POLY(1) VLIM 0  1
DQ1  20 21 DX
DQ2  22 20 DX
VQ1  21  0 0
VQ2  22  0 0
FQ1   3  0 POLY(1) VQ1  0.2814E-3  1
FQ2   0  4 POLY(1) VQ2  0.2814E-3 -1
* QUIESCIENT CURRENT
RQ    3  4  5.0E5
* DIFF INPUT CAPACITANCE
CDIF  1  2  1.0E-12
* COMMON MODE INPUT CAPACITANCE
C1CM  1  99 1.5E-12
C2CM  2  99 1.5E-12
*
.MODEL DX D(IS=800.0E-18)
.MODEL QX PNP(IS=800.0E-18 BF=466.7)
.ENDS
**********
*SRC=OPA102;OPA102B;Opamps;Burr-Brown;Low Noise, 9nV/RTHz
*SYM=BBOPAMP
* OPA102 
* CONNECTIONS:   NON-INVERTING INPUT
*                | INVERTING INPUT
*                | | POSITIVE POWER SUPPLY
*                | | | NEGATIVE POWER SUPPLY
*                | | | | OUTPUT
*                | | | | |
.SUBCKT OPA102B  1 2 3 4 5
*
C1   11 12 1.374E-12
C2    6  7 1.000E-12
DC    5 53 DX
DE   54  5 DX
DLP  90 91 DX
DLN  92 90 DX
DP    4  3 DX
EGND 99  0 POLY(2) 3 0 4 0 0 .5 .5
FB    7 99 POLY(5) VB VC VE VLP VLN 0 2.104E6 -2E6 2E6 2E6 -2E6
GA    6  0 11 12 251.3E-6
GCM   0  6 10 99 1.413E-9
ISS  10  4 DC 14.00E-6
HLIM 90  0 VLIM 1K
J1   11  2 10 JX
J2   12  1 10 JX
R2    6  9 100.0E3
RD1   3 11 3.979E3
RD2   3 12 3.979E3
RO1   8  5 25
RO2   7 99 475
RP    3  4 5.172E3
RSS  10 99 14.29E6
VB    9  0 DC 0
VC    3 53 DC 2
VE   54  4 DC 2
VLIM  7  8 DC 0
VLP  91  0 DC 45
VLN   0 92 DC 45
.MODEL DX D(IS=800.0E-18)
.MODEL JX NJF(IS=6.000E-12 BETA=2.256E-3 VTO=-1)
.ENDS
**********
*SRC=OPA102E;OPA102EB;Opamps;Burr-Brown;Low Noise, 9nV/RTHz
*SYM=BBOPAMP
* OPA102E 
* CONNECTIONS:   NON-INVERTING INPUT
*                | INVERTING INPUT
*                | | POSITIVE POWER SUPPLY
*                | | | NEGATIVE POWER SUPPLY
*                | | | | OUTPUT
*                | | | | |
.SUBCKT OPA102EB 1 2 3 4 5
*
C1   11 12 1.374E-12
C2    6  7 1.000E-12
DC    5 53 DX
DE   54  5 DX
DLP  90 91 DX
DLN  92 90 DX
DP    4  3 DX
EGND 99  0 POLY(2) 3 0 4 0 0 .5 .5
FB    7 99 POLY(5) VB VC VE VLP VLN 0 2.104E6 -2E6 2E6 2E6 -2E6
GA    6  0 11 12 251.3E-6
GCM   0  6 10 99 1.413E-9
ISS  10  4 DC 14.00E-6
HLIM 90  0 VLIM 1K
J1   11  2 10 JX
J2   12  1 10 JX
R2    6  9 100.0E3
RD1   3 11 3.979E3
RD2   3 12 3.979E3
RO1   8  5 25
RO2   7 99 475
*  RP    3  4 5.172E3
RSS  10 99 14.29E6
VB    9  0 DC 0
VC    3 53 DC 2
VE   54  4 DC 2
VLIM  7  8 DC 0
VLP  91  0 DC 45
VLN   0 92 DC 45
**
* OPA102 "E" - ENHANCEMENTS
**
* OUTPUT SUPPLY MIRROR
FQ3   0 20 POLY(1) VLIM 0  1
DQ1  20 21 DX
DQ2  22 20 DX
VQ1  21  0 0
VQ2  22  0 0
FQ1   3  0 POLY(1) VQ1  4.29E-3  1
FQ2   0  4 POLY(1) VQ2  4.29E-3 -1
* QUIESCIENT CURRENT
RQ    3  4  2.0E4
* DIFF INPUT CAPACITANCE
CDIF  1  2  1.0E-12
* COMMON MODE INPUT CAPACITANCE
C1CM  1  99 1.5E-12
C2CM  2  99 1.5E-12
**
.MODEL DX D(IS=800.0E-18)
.MODEL JX NJF(IS=6.000E-12 BETA=2.256E-3 VTO=-1)
.ENDS
**********
*SRC=OPA111;OPA111B;Opamps;Burr-Brown;JFET, Low Noise 8nV/RTHz
*SYM=BBOPAMP
* OPA111 Op-Amp 
*
* CONNECTIONS:   NON-INVERTING INPUT
*                | INVERTING INPUT
*                | | POSITIVE POWER SUPPLY
*                | | | NEGATIVE POWER SUPPLY
*                | | | | OUTPUT
*                | | | | |
.SUBCKT OPA111B  1 2 3 4 5
*
C1   11 12 72.79E-12
C2    6  7 400.0E-12
DC    5 53 DX
DE   54  5 DX
DLP  90 91 DX
DLN  92 90 DX
DP    4  3 DX
EGND 99  0 POLY(2) 3 0 4 0 0 .5 .5
FB    7 99 POLY(5) VB VC VE VLP VLN 0 4.717E6 -5E6 5E6 5E6 -5E6
GA    6  0 11 12 5.027E-3
GCM   0  6 10 99 15.90E-9
ISS   3 10 DC 800.0E-6
HLIM 90  0 VLIM 1K
J1   11  2 10 JX
J2   12  1 10 JX
R2    6  9 100.0E3
RD1   4 11 198.9
RD2   4 12 198.9
RO1   8  5 25
RO2   7 99 75
RP    3  4 12.00E3
RSS  10 99 250.0E3
VB    9  0 DC 0
VC    3 53 DC 3
VE   54  4 DC 3
VLIM  7  8 DC 0
VLP  91  0 DC 40
VLN   0 92 DC 40
.MODEL DX D(IS=800.0E-18)
.MODEL JX PJF(IS=400.0E-15 BETA=15.79E-3 VTO=-1)
.ENDS
**********
*SRC=OPA111E;OPA111EB;Opamps;Burr-Brown;JFET, Low Noise 8nV/RTHz
*SYM=BBOPAMP
* OPA111E Op-Amp 
*
* REVISED 3/21/92 BCB added input bias current correction and 
*                     current and voltage noise
*
* CONNECTIONS:   NON-INVERTING INPUT
*                | INVERTING INPUT
*                | | POSITIVE POWER SUPPLY
*                | | | NEGATIVE POWER SUPPLY
*                | | | | OUTPUT
*                | | | | |
.SUBCKT OPA111EB 1 2 3 4 5
*
C1   11 12 72.79E-12
C2    6  7 400.0E-12
DC    5 53 DX
DE   54  5 DX
DLP  90 91 DX
DLN  92 90 DX
DP    4  3 DX
EGND 99  0 POLY(2) 3 0 4 0 0 .5 .5
FB    7 99 POLY(5) VB VC VE VLP VLN 0 4.717E6 -5E6 5E6 5E6 -5E6
GA    6  0 11 12 5.027E-3
GCM   0  6 10 99 15.90E-9
ISS   3 10 DC 800.0E-6
HLIM 90  0 VLIM 1K
J1   11  2 10 JX
J2   12  64 10 JX
G11 2 4 POLY(4) 10 2 11 2 4 2 66 0 0 1E-12 1E-12 1E-12 400E-9
G21 1 4 POLY(4) 10 1 12 1 4 1 68 0 0 1E-12 1E-12 1E-12 400E-9
R2    6  9 100.0E3
RD1   4 11 198.9
RD2   4 12 198.9
RO1   8  5 25
RO2   7 99 75
*  RP    3  4 12.00E3
RSS  10 99 250.0E3
VB    9  0 DC 0
VC    3 53 DC 3
VE   54  4 DC 3
VLIM  7  8 DC 0
VLP  91  0 DC 40
VLN   0 92 DC 40
*
* OPA111 "E" - ENHANCEMENTS
*
* OUTPUT SUPPLY MIRROR
FQ3   0 20 POLY(1) VLIM 0  1
DQ1  20 21 DX
DQ2  22 20 DX
VQ1  21  0 0
VQ2  22  0 0
FQ1   3  0 POLY(1) VQ1  1.30E-3  1
FQ2   0  4 POLY(1) VQ2  1.30E-3 -1
* QUIESCIENT CURRENT
RQ    3  4  7.5E4
* DIFF INPUT CAPACITANCE
CDIF  64  2  1.0E-12
* COMMON MODE INPUT CAPACITANCE
C1CM  64  99 1.5E-12
C2CM  2  99 1.5E-12
* INPUT VOLTAGE NOISE 
VN1 61 4  0.6
VN2 4  62 0.6
DN1 61 63 DY
DN2 63 62 DY
EN 64 1  63 4 1
* INPUT CURRENT NOISE
RN1 0 65 60.3865
RN2 65 66 60.3865
RN3 66 0 120.773
RN4 0 67 60.3865
RN5 67 68 60.3865
RN6 68 0 120.773
*
.MODEL DY D(IS=3.8E-16 AF=1 KF=1.175E-16)
.MODEL DX D(IS=800.0E-18)
.MODEL JX PJF(IS=400.0E-15 BETA=15.79E-3 VTO=-1)
.ENDS
**********
*SRC=OPA121;OPA121B;Opamps;Burr-Brown;JFET, Low Noise 8nV/RTHz
*SYM=BBOPAMP
* OPA121 Op-Amp 
*
* CONNECTIONS:   NON-INVERTING INPUT
*                | INVERTING INPUT
*                | | POSITIVE POWER SUPPLY
*                | | | NEGATIVE POWER SUPPLY
*                | | | | OUTPUT
*                | | | | |
.SUBCKT OPA121B  1 2 3 4 5
*
C1   11 12 72.79E-12
C2    6  7 400.0E-12
DC    5 53 DX
DE   54  5 DX
DLP  90 91 DX
DLN  92 90 DX
DP    4  3 DX
EGND 99  0 POLY(2) 3 0 4 0 0 .5 .5
FB    7 99 POLY(5) VB VC VE VLP VLN 0 2.653E6 -3E6 3E6 3E6 -3E6
GA    6  0 11 12 5.027E-3
GCM   0  6 10 99 31.72E-9
ISS   3 10 DC 800.0E-6
HLIM 90  0 VLIM 1K
J1   11  2 10 JX
J2   12  1 10 JX
R2    6  9 100.0E3
RD1   4 11 198.9
RD2   4 12 198.9
RO1   8  5 25
RO2   7 99 75
RP    3  4 12.00E3
RSS  10 99 250.0E3
VB    9  0 DC 0
VC    3 53 DC 3
VE   54  4 DC 3
VLIM  7  8 DC 0
VLP  91  0 DC 40
VLN   0 92 DC 40
.MODEL DX D(IS=800.0E-18)
.MODEL JX PJF(IS=500.0E-15 BETA=15.79E-3 VTO=-1)
.ENDS
**********
*SRC=OPA121E;OPA121EB;Opamps;Burr-Brown;JFET, Low Noise 8nV/RTHz
*SYM=BBOPAMP
* OPA121E Op-Amp 
*
* REVISED 3/21/92 BCB added input bias current correction and 
*                     current and voltage noise
*
* CONNECTIONS:   NON-INVERTING INPUT
*                | INVERTING INPUT
*                | | POSITIVE POWER SUPPLY
*                | | | NEGATIVE POWER SUPPLY
*                | | | | OUTPUT
*                | | | | |
.SUBCKT OPA121EB 1 2 3 4 5
*
C1   11 12 72.79E-12
C2    6  7 400.0E-12
DC    5 53 DX
DE   54  5 DX
DLP  90 91 DX
DLN  92 90 DX
DP    4  3 DX
EGND 99  0 POLY(2) 3 0 4 0 0 .5 .5
FB    7 99 POLY(5) VB VC VE VLP VLN 0 2.653E6 -3E6 3E6 3E6 -3E6
GA    6  0 11 12 5.027E-3
GCM   0  6 10 99 31.72E-9
ISS   3 10 DC 800.0E-6
HLIM 90  0 VLIM 1K
J1   11  2 10 JX
J2   12  64 10 JX
G11 2 4 POLY(4) 10 2 11 2 4 2 66 0 0 1E-12 1E-12 1E-12 800E-9
G21 1 4 POLY(4) 10 1 12 1 4 1 68 0 0 1E-12 1E-12 1E-12 800E-9
R2    6  9 100.0E3
RD1   4 11 198.9
RD2   4 12 198.9
RO1   8  5 25
RO2   7 99 75
*  RP    3  4 12.00E3
RSS  10 99 250.0E3
VB    9  0 DC 0
VC    3 53 DC 3
VE   54  4 DC 3
VLIM  7  8 DC 0
VLP  91  0 DC 40
VLN   0 92 DC 40
*
* OPA121 "E" - ENHANCEMENTS
*
* OUTPUT SUPPLY MIRROR
FQ3   0 20 POLY(1) VLIM 0  1
DQ1  20 21 DX
DQ2  22 20 DX
VQ1  21  0 0
VQ2  22  0 0
FQ1   3  0 POLY(1) VQ1  1.30E-3  1
FQ2   0  4 POLY(1) VQ2  1.30E-3 -1
* QUIESCIENT CURRENT
RQ    3  4  7.5E4
* DIFF INPUT CAPACITANCE
CDIF  1  2  1.0E-12
* COMMON MODE INPUT CAPACITANCE
C1CM  1  99 1.5E-12
C2CM  2  99 1.5E-12
* INPUT VOLTAGE NOISE 
VN1 61 4  0.6
VN2 4  62 0.6
DN1 61 63 DY
DN2 63 62 DY
EN 64 1  63 4 1
* INPUT CURRENT NOISE
RN1 0 65 60.3865
RN2 65 66 60.3865
RN3 66 0 120.773
RN4 0 67 60.3865
RN5 67 68 60.3865
RN6 68 0 120.773
*
.MODEL DY D(IS=3.8E-16 AF=1 KF=2.089E-16)
.MODEL DX D(IS=800.0E-18)
.MODEL JX PJF(IS=500.0E-15 BETA=15.79E-3 VTO=-1)
.ENDS
**********
*SRC=OPA128;OPA128B;Opamps;Burr-Brown;JFET, Low IBias 75fA max.
*SYM=BBOPAMP
* OPA128 Op-Amp 
*
* CONNECTIONS:   NON-INVERTING INPUT
*                | INVERTING INPUT
*                | | POSITIVE POWER SUPPLY
*                | | | NEGATIVE POWER SUPPLY
*                | | | | OUTPUT
*                | | | | |
.SUBCKT OPA128B  1 2 3 4 5
*
C1   11 12 2.204E-12
C2    6  7 25.00E-12
DC    5 53 DX
DE   54  5 DX
DLP  90 91 DX
DLN  92 90 DX
DP    4  3 DX
EGND 99  0 POLY(2) 3 0 4 0 0 .5 .5
FB    7 99 POLY(5) VB VC VE VLP VLN 0 106.6E6 -10E6 10E6 10E6 -10E6
GA    6  0 11 12 314.2E-6
GCM   0  6 10 99 395.5E-12
ISS   3 10 DC 80.00E-6
HLIM 90  0 VLIM 1K
J1   11  2 10 JX
J2   12  1 10 JX
R2    6  9 100.0E3
RD1   4 11 3.183E3
RD2   4 12 3.183E3
RO1   8  5 25
RO2   7 99 75
RP    3  4 33.33E3
RSS  10 99 2.500E6
VB    9  0 DC 0
VC    3 53 DC 2
VE   54  4 DC 2
VLIM  7  8 DC 0
VLP  91  0 DC 29
VLN   0 92 DC 29
.MODEL DX D(IS=800.0E-18)
.MODEL JX PJF(IS=20.00E-15 BETA=616.8E-6 VTO=-1)
.ENDS
**********
*SRC=OPA128E;OPA128EB;Opamps;Burr-Brown;JFET, Low IBias 75fA max.
*SYM=BBOPAMP
* OPA128E Op-Amp 
*
* REVISED 3/21/92 BCB added input bias current correction and 
*                     current and voltage noise
*
* CONNECTIONS:   NON-INVERTING INPUT
*                | INVERTING INPUT
*                | | POSITIVE POWER SUPPLY
*                | | | NEGATIVE POWER SUPPLY
*                | | | | OUTPUT
*                | | | | |
.SUBCKT OPA128EB 1 2 3 4 5
*
C1   11 12 2.204E-12
C2    6  7 25.00E-12
DC    5 53 DX
DE   54  5 DX
DLP  90 91 DX
DLN  92 90 DX
DP    4  3 DX
EGND 99  0 POLY(2) 3 0 4 0 0 .5 .5
FB    7 99 POLY(5) VB VC VE VLP VLN 0 106.6E6 -10E6 10E6 10E6 -10E6
GA    6  0 11 12 314.2E-6
GCM   0  6 10 99 395.5E-12
ISS   3 10 DC 80.00E-6
HLIM 90  0 VLIM 1K
J1   11  2 10 JX
J2   12  64 10 JX
G11 2 4 POLY(4) 10 2 11 2 4 2 66 0 0 1E-12 1E-12 1E-12 120E-9
G21 1 4 POLY(4) 10 1 12 1 4 1 68 0 0 1E-12 1E-12 1E-12 120E-9
R2    6  9 100.0E3
RD1   4 11 3.183E3
RD2   4 12 3.183E3
RO1   8  5 25
RO2   7 99 75
*  RP    3  4 33.33E3
RSS  10 99 2.500E6
VB    9  0 DC 0
VC    3 53 DC 2
VE   54  4 DC 2
VLIM  7  8 DC 0
VLP  91  0 DC 29
VLN   0 92 DC 29
*
* OPA128 "E" - ENHANCEMENTS
*
* OUTPUT SUPPLY MIRROR
FQ3   0 20 POLY(1) VLIM 0  1
DQ1  20 21 DX
DQ2  22 20 DX
VQ1  21  0 0
VQ2  22  0 0
FQ1   3  0 POLY(1) VQ1  0.700E-3  1
FQ2   0  4 POLY(1) VQ2  0.700E-3 -1
* QUIESCIENT CURRENT
RQ    3  4  2.5E5
* DIFF INPUT CAPACITANCE
CDIF  1  2  1.0E-12
* COMMON MODE INPUT CAPACITANCE
C1CM  1  99 1.0E-12
C2CM  2  99 1.0E-12
* INPUT VOLTAGE NOISE
VN1 61 0  0.6
VN2 0  62 0.6
DN1 61 63 DY
DN2 63 62 DY
EN 64 1  63 0 1
* INPUT CURRENT NOISE
RN1 0 65 60.3865
RN2 65 66 60.3865
RN3 66 0 120.773
RN4 0 67 60.3865
RN5 67 68 60.3865
RN6 68 0 120.773
*
.MODEL DY D(IS=1.9E-16 AF=1 KF=5.643E-16)
.MODEL DX D(IS=800.0E-18)
.MODEL JX PJF(IS=20.00E-15 BETA=616.8E-6 VTO=-1)
.ENDS
**********
*SRC=OPA177;OPA177B;Opamps;Burr-Brown;Precision, Low VOS 10uV max.
*SYM=BBOPAMP
* OPA177 Op-Amp 
*
* CONNECTIONS:   NON-INVERTING INPUT
*                | INVERTING INPUT
*                | | POSITIVE POWER SUPPLY
*                | | | NEGATIVE POWER SUPPLY
*                | | | | OUTPUT
*                | | | | |
.SUBCKT OPA177B  1 2 3 4 5
*
C1   11 12 40.00E-12
C2    6  7 80.00E-12
DC    5 53 DX
DE   54  5 DX
DLP  90 91 DX
DLN  92 90 DX
DP    4  3 DX
EGND 99  0 POLY(2) 3 0 4 0 0 .5 .5
FB    7 99 POLY(5) VB VC VE VLP VLN 0 1.326E9 -1E9 1E9 1E9 -1E9
GA    6  0 11 12 301.6E-6
GCM   0  6 10 99 30.16E-12
IEE  10  4 DC 20.00E-6
HLIM 90  0 VLIM 1K
Q1   11  2 13 QX
Q2   12  1 14 QX
R2    6  9 100.0E3
RC1   3 11 3.316E3
RC2   3 12 3.316E3
RE1  13 10 729.2
RE2  14 10 729.2
REE  10 99 9.999E6
RO1   8  5 30
RO2   7 99 30
RP    3  4 15.15E3
VB    9  0 DC 0
VC    3 53 DC 1.500
VE   54  4 DC 1.500
VLIM  7  8 DC 0
VLP  91  0 DC 22
VLN   0 92 DC 22
.MODEL DX D(IS=800.0E-18)
.MODEL QX NPN(IS=800.0E-18 BF=10.00E3)
.ENDS
**********
*SRC=OPA177E;OPA177EB;Opamps;Burr-Brown;Precision, Low VOS 10uV max.
*SYM=BBOPAMP
* OPA177E 
* CONNECTIONS:   NON-INVERTING INPUT
*                |   INVERTING INPUT
*                |   |  POSITIVE POWER SUPPLY
*                |   |  | NEGATIVE POWER SUPPLY
*                |   |  | | OUTPUT
*                |   |  | | |
.SUBCKT OPA177EB 110 111 3 4 5
*
C1   11 12 40.00E-12
C2    6  7 80.00E-12
DC    5 53 DX
DE   54  5 DX
DLP  90 91 DX
DLN  92 90 DX
DP    4  3 DX
EGND 99  0 POLY(2) 3 0 4 0 0 .5 .5
FB    7 99 POLY(5) VB VC VE VLP VLN 0 1.326E9 -1E9 1E9 1E9 -1E9
GA    6  0 11 12 301.6E-6
GCM   0  6 10 99 30.16E-12
IEE  10  4 DC 20.00E-6
HLIM 90  0 VLIM 1K
Q1   11  2 13 QX
Q2   12  1 14 QX
R2    6  9 100.0E3
RC1   3 11 3.316E3
RC2   3 12 3.316E3
RE1  13 10 729.2
RE2  14 10 729.2
REE  10 99 9.999E6
RO1   8  5 30
RO2   7 99 30
*  RP    3  4 15.15E3
VB    9  0 DC 0
VC    3 53 DC 1.500
VE   54  4 DC 1.500
VLIM  7  8 DC 0
VLP  91  0 DC 22
VLN   0 92 DC 22
*
* OPA177 "E" - ENHANCEMENTS
*
* OUTPUT SUPPLY MIRROR
FQ3   0 20 POLY(1) VLIM 0  1
DQ1  20 21 DX
DQ2  22 20 DX
VQ1  21  0 0
VQ2  22  0 0
FQ1   3  0 POLY(1) VQ1  0.976E-3  1
FQ2   0  4 POLY(1) VQ2  0.976E-3 -1
* QUIESCIENT CURRENT
RQ    3  4  3.0E4
* DIFF INPUT CAPACITANCE
CDIF  1  2  1.0E-12
* COMMON MODE INPUT CAPACITANCE
C1CM  1  99 1.5E-12
C2CM  2  99 1.5E-12
* INPUT PROTECTION
R1IN  110 1  500
D1A    1 100 DX
D1B   100 2  DX
R2IN  111 2  500
D2A    2 101 DX
D2B   101 1  DX
*
.MODEL DX D(IS=800.0E-18)
.MODEL QX NPN(IS=800.0E-18 BF=10.00E3)
.ENDS
**********
*SRC=OPA2107;OPA2107B;Opamps;Burr-Brown;JFET, Wideband 4MHz GBWP
*SYM=BBOPAMP
* OPA2107 Op-Amp 
*
*
* CONNECTIONS:   NON-INVERTING INPUT
*                | INVERTING INPUT
*                | | POSITIVE POWER SUPPLY
*                | | | NEGATIVE POWER SUPPLY
*                | | | | OUTPUT
*                | | | | |
.SUBCKT OPA2107B 1 2 3 4 5
*
C1   11 12 7.764E-12
C2    6  7 33.30E-12
DC    5 53 DX
DE   54  5 DX
DLP  90 91 DX
DLN  92 90 DX
DP    4  3 DX
EGND 99  0 POLY(2) 3 0 4 0 0 .5 .5
FB    7 99 POLY(5) VB VC VE VLP VLN 0 2.124E6 -2E6 2E6 2E6 -2E6
GA    6  0 11 12 941.5E-6
GCM   0  6 10 99 9.415E-9
ISS   3 10 DC 599.4E-6
HLIM 90  0 VLIM 1K
J1   11  2 10 JX
J2   12  1 10 JX
R2    6  9 100.0E3
RD1   4 11 1.062E3
RD2   4 12 1.062E3
RO1   8  5 50
RO2   7 99 50
RP    3  4 13.33E3
RSS  10 99 333.7E3
VB    9  0 DC 0
VC    3 53 DC 3
VE   54  4 DC 3
VLIM  7  8 DC 0
VLP  91  0 DC 40
VLN   0 92 DC 40
.MODEL DX D(IS=800.0E-18)
.MODEL JX PJF(IS=2.000E-12 BETA=739.5E-6 VTO=-1)
.ENDS
**********
*SRC=OPA2107E;OPA2107E;Opamps;Burr-Brown;JFET, Wideband 4MHz GBWP
*SYM=BBOPAMP
* OPA2107E Op-Amp 
*
* REVISED 3/21/92 BCB added input bias current correction and 
*                     current and voltage noise
*
* CONNECTIONS:   NON-INVERTING INPUT
*                | INVERTING INPUT
*                | | POSITIVE POWER SUPPLY
*                | | | NEGATIVE POWER SUPPLY
*                | | | | OUTPUT
*                | | | | |
.SUBCKT OPA2107E 1 2 3 4 5
*
C1   11 12 7.764E-12
C2    6  7 33.30E-12
DC    5 53 DX
DE   54  5 DX
DLP  90 91 DX
DLN  92 90 DX
DP    4  3 DX
EGND 99  0 POLY(2) 3 0 4 0 0 .5 .5
FB    7 99 POLY(5) VB VC VE VLP VLN 0 2.124E6 -2E6 2E6 2E6 -2E6
GA    6  0 11 12 941.5E-6
GCM   0  6 10 99 9.415E-9
ISS   3 10 DC 599.4E-6
HLIM 90  0 VLIM 1K
J1   11  2 10 JX
J2   12  64 10 JX
G11 2 4 POLY(4) 10 2 11 2 4 2 66 0 0 1E-12 1E-12 1E-12 900E-9
G21 1 4 POLY(4) 10 1 12 1 4 1 68 0 0 1E-12 1E-12 1E-12 900E-9
R2    6  9 100.0E3
RD1   4 11 1.062E3
RD2   4 12 1.062E3
RO1   8  5 50
RO2   7 99 50
*  RP    3  4 13.33E3
RSS  10 99 333.7E3
VB    9  0 DC 0
VC    3 53 DC 3
VE   54  4 DC 3
VLIM  7  8 DC 0
VLP  91  0 DC 40
VLN   0 92 DC 40
*
* OPA2107 "E" - ENHANCEMENTS
*
* OUTPUT SUPPLY MIRROR
FQ3   0 20 POLY(1) VLIM 0  1
DQ1  20 21 DX
DQ2  22 20 DX
VQ1  21  0 0
VQ2  22  0 0
FQ1   3  0 POLY(1) VQ1  1.350E-3  1
FQ2   0  4 POLY(1) VQ2  1.350E-3 -1
* QUIESCIENT CURRENT
RQ    3  4  1.0E5
* DIFF INPUT CAPACITANCE
CDIF  1  2  2.0E-12
* COMMON MODE INPUT CAPACITANCE
C1CM  1  99 2.0E-12
C2CM  2  99 2.0E-12
* INPUT VOLTAGE NOISE
VN1 61 0  0.6
VN2 0  62 0.6
DN1 61 63 DY
DN2 63 62 DY
EN 64 1  63 0 1
* INPUT CURRENT NOISE
RN1 0 65 60.3865
RN2 65 66 60.3865
RN3 66 0 120.773
RN4 0 67 60.3865
RN5 67 68 60.3865
RN6 68 0 120.773
*
.MODEL DY D(IS=1E-12 AF=1 KF=68.36E-15)
.MODEL DX D(IS=800.0E-18)
.MODEL JX PJF(IS=2.000E-12 BETA=739.5E-6 VTO=-1)
.ENDS
**********
*SRC=OPA2111;OPA2111B;Opamps;Burr-Brown;JFET, Low Noise 8nV/RTHz
*SYM=BBOPAMP
* OPA2111 Op-Amp 
*
* CONNECTIONS:   NON-INVERTING INPUT
*                | INVERTING INPUT
*                | | POSITIVE POWER SUPPLY
*                | | | NEGATIVE POWER SUPPLY
*                | | | | OUTPUT
*                | | | | |
.SUBCKT OPA2111B 1 2 3 4 5
*
C1   11 12 72.79E-12
C2    6  7 400.0E-12
DC    5 53 DX
DE   54  5 DX
DLP  90 91 DX
DLN  92 90 DX
DP    4  3 DX
EGND 99  0 POLY(2) 3 0 4 0 0 .5 .5
FB    7 99 POLY(5) VB VC VE VLP VLN 0 4.717E6 -5E6 5E6 5E6 -5E6
GA    6  0 11 12 5.027E-3
GCM   0  6 10 99 15.90E-9
ISS   3 10 DC 800.0E-6
HLIM 90  0 VLIM 1K
J1   11  2 10 JX
J2   12  1 10 JX
R2    6  9 100.0E3
RD1   4 11 198.9
RD2   4 12 198.9
RO1   8  5 25
RO2   7 99 75
RP    3  4 12.00E3
RSS  10 99 250.0E3
VB    9  0 DC 0
VC    3 53 DC 4
VE   54  4 DC 4
VLIM  7  8 DC 0
VLP  91  0 DC 40
VLN   0 92 DC 40
.MODEL DX D(IS=800.0E-18)
.MODEL JX PJF(IS=500.0E-15 BETA=15.79E-3 VTO=-1)
.ENDS
**********
*SRC=OPA2111E;OPA2111E;Opamps;Burr-Brown;JFET, Low Noise 8nV/RTHz
*SYM=BBOPAMP
* OPA2111E Op-Amp 
*
* REVISED 3/21/92 BCB added input bias current correction and 
*                     current and voltage noise
*
* CONNECTIONS:   NON-INVERTING INPUT
*                | INVERTING INPUT
*                | | POSITIVE POWER SUPPLY
*                | | | NEGATIVE POWER SUPPLY
*                | | | | OUTPUT
*                | | | | |
.SUBCKT OPA2111E 1 2 3 4 5
*
C1   11 12 72.79E-12
C2    6  7 400.0E-12
DC    5 53 DX
DE   54  5 DX
DLP  90 91 DX
DLN  92 90 DX
DP    4  3 DX
EGND 99  0 POLY(2) 3 0 4 0 0 .5 .5
FB    7 99 POLY(5) VB VC VE VLP VLN 0 4.717E6 -5E6 5E6 5E6 -5E6
GA    6  0 11 12 5.027E-3
GCM   0  6 10 99 15.90E-9
ISS   3 10 DC 800.0E-6
HLIM 90  0 VLIM 1K
J1   11  2 10 JX
J2   12  64 10 JX
G11 2 4 POLY(4) 10 2 11 2 4 2 66 0 0 1E-12 1E-12 1E-12 600E-9
G21 1 4 POLY(4) 10 1 12 1 4 1 68 0 0 1E-12 1E-12 1E-12 600E-9
R2    6  9 100.0E3
RD1   4 11 198.9
RD2   4 12 198.9
RO1   8  5 25
RO2   7 99 75
*  RP    3  4 12.00E3
RSS  10 99 250.0E3
VB    9  0 DC 0
VC    3 53 DC 4
VE   54  4 DC 4
VLIM  7  8 DC 0
VLP  91  0 DC 40
VLN   0 92 DC 40
*
* OPA2111 "E" - ENHANCEMENTS
*
* OUTPUT SUPPLY MIRROR
FQ3   0 20 POLY(1) VLIM 0  1
DQ1  20 21 DX
DQ2  22 20 DX
VQ1  21  0 0
VQ2  22  0 0
FQ1   3  0 POLY(1) VQ1  1.30E-3  1
FQ2   0  4 POLY(1) VQ2  1.30E-3 -1
* QUIESCIENT CURRENT
RQ    3  4  7.5E4
* DIFF INPUT CAPACITANCE
CDIF  1  2  1.0E-12
* COMMON MODE INPUT CAPACITANCE
C1CM  1  99 1.5E-12
C2CM  2  99 1.5E-12
* INPUT VOLTAGE NOISE 
VN1 61 4  0.6
VN2 4  62 0.6
DN1 61 63 DY
DN2 63 62 DY
EN 64 1  63 4 1
* INPUT CURRENT NOISE
RN1 0 65 60.3865
RN2 65 66 60.3865
RN3 66 0 120.773
RN4 0 67 60.3865
RN5 67 68 60.3865
RN6 68 0 120.773
*
.MODEL DY D(IS=2.25E-16 AF=1 KF=91E-18)
.MODEL DX D(IS=800.0E-18)
.MODEL JX PJF(IS=500.0E-15 BETA=15.79E-3 VTO=-1)
.ENDS
**********
*SRC=OPA2541;OPA2541B;Opamps;Burr-Brown;High Power Currents to 5A
*SYM=BBOPAMP
* OPA2541 Op-Amp 
* 
* CONNECTIONS:   NON-INVERTING INPUT
*                | INVERTING INPUT
*                | | POSITIVE POWER SUPPLY
*                | | | NEGATIVE POWER SUPPLY
*                | | | | OUTPUT
*                | | | | |
.SUBCKT OPA2541B 1 2 3 4 5
*
C1   11 12 10.71E-12
C2    6  7 15.00E-12
DC    5 53 DX
DE   54  5 DX
DLP  90 91 DX
DLN  92 90 DX
DP    4  3 DX
EGND 99  0 POLY(2) 3 0 4 0 0 .5 .5
FB    7 99 POLY(5) VB VC VE VLP VLN 0 2.653E9 -3E9 3E9 3E9 -3E9
GA    6  0 11 12 150.8E-6
GCM   0  6 10 99 337.6E-12
ISS   3 10 DC 120.0E-6
HLIM 90  0 VLIM 1K
J1   11  2 10 JX
J2   12  1 10 JX
R2    6  9 100.0E3
RD1   4 11 6.631E3
RD2   4 12 6.631E3
RO1   8  5 .25
RO2   7 99 .25
RP    3  4 4.000E3
RSS  10 99 1.667E6
VB    9  0 DC 0
VC    3 53 DC 5
VE   54  4 DC 5
VLIM  7  8 DC 0
VLP  91  0 DC 8.000E3
VLN   0 92 DC 8.000E3
.MODEL DX D(IS=800.0E-18)
.MODEL JX PJF(IS=2.000E-12 BETA=94.75E-6 VTO=-1)
.ENDS
**********
*SRC=OPA2541E;OPA2541E;Opamps;Burr-Brown;High Power Currents to 5A
*SYM=BBOPAMP
* OPA2541E Op-Amp 
*
* REVISED 3/21/92 BCB added input bias current correction
*
* CONNECTIONS:   NON-INVERTING INPUT
*                | INVERTING INPUT
*                | | POSITIVE POWER SUPPLY
*                | | | NEGATIVE POWER SUPPLY
*                | | | | OUTPUT
*                | | | | |
.SUBCKT OPA2541E 1 2 3 4 5
*
C1   11 12 10.71E-12
C2    6  7 15.00E-12
DC    5 53 DX
DE   54  5 DX
DLP  90 91 DX
DLN  92 90 DX
DP    4  3 DX
EGND 99  0 POLY(2) 3 0 4 0 0 .5 .5
FB    7 99 POLY(5) VB VC VE VLP VLN 0 2.653E9 -3E9 3E9 3E9 -3E9
GA    6  0 11 12 150.8E-6
GCM   0  6 10 99 337.6E-12
ISS   3 10 DC 120.0E-6
HLIM 90  0 VLIM 1K
J1   11  2 10 JX
J2   12  1 10 JX
G11 2 4 POLY(3) 10 2 11 2 4 2 0 1E-12 1E-12 1E-12
G21 1 4 POLY(3) 10 1 12 1 4 1 0 1E-12 1E-12 1E-12
R2    6  9 100.0E3
RD1   4 11 6.631E3
RD2   4 12 6.631E3
RO1   8  5 .25
RO2   7 99 .25
*  RP    3  4 4.000E3
RSS  10 99 1.667E6
VB    9  0 DC 0
VC    3 53 DC 5
VE   54  4 DC 5
VLIM  7  8 DC 0
VLP  91  0 DC 8.000E3
VLN   0 92 DC 8.000E3
*
* OPA2541 "E" - ENHANCEMENTS
*
* OUTPUT SUPPLY MIRROR
FQ3   0 20 POLY(1) VLIM 0  1
DQ1  20 21 DX
DQ2  22 20 DX
VQ1  21  0 0
VQ2  22  0 0
FQ1   3  0 POLY(1) VQ1  16.68E-3  1
FQ2   0  4 POLY(1) VQ2  16.68E-3 -1
* QUIESCIENT CURRENT
RQ    3  4  2.5E4
* DIFF INPUT CAPACITANCE
CDIF  1  2  2.0E-12
* COMMON MODE INPUT CAPACITANCE
C1CM  1  99 2.0E-12
C2CM  2  99 2.0E-12
*
.MODEL DX D(IS=800.0E-18)
.MODEL JX PJF(IS=2.000E-12 BETA=94.75E-6 VTO=-1)
.ENDS
**********
*SRC=OPA2604;OPA2604B;Opamps;Burr-Brown;JFET, Low Noise 11nV/RTHz
*SYM=BBOPAMP
* OPA2604 Op-Amp 
* 
* CONNECTIONS:   NON-INVERTING INPUT
*                | INVERTING INPUT
*                | | POSITIVE POWER SUPPLY
*                | | | NEGATIVE POWER SUPPLY
*                | | | | OUTPUT
*                | | | | |
.SUBCKT OPA2604B 1 2 3 4 5
*
C1   11 12 22.85E-12
C2    6  7 32.00E-12
DC    5 53 DX
DE   54  5 DX
DLP  90 91 DX
DLN  92 90 DX
DP    4  3 DX
EGND 99  0 POLY(2) 3 0 4 0 0 .5 .5
FB    7 99 POLY(5) VB VC VE VLP VLN 0 418.4E3 -40E3 40E3 40E3 -40E3
GA    6  0 11 12 2.011E-3
GCM   0  6 10 99 20.11E-9
ISS   3 10 DC 800.0E-6
HLIM 90  0 VLIM 1K
J1   11  2 10 JX
J2   12  1 10 JX
R2    6  9 100.0E3
RD1   4 11 497.4
RD2   4 12 497.4
RO1   8  5 25
RO2   7 99 75
RP    3  4 6.294E3
RSS  10 99 250.0E3
VB    9  0 DC 0
VC    3 53 DC 3
VE   54  4 DC 3
VLIM  7  8 DC 0
VLP  91  0 DC 50
VLN   0 92 DC 50
.MODEL DX D(IS=800.0E-18)
.MODEL JX PJF(IS=12.50E-12 BETA=2.528E-3 VTO=-1)
.ENDS
**********
*SRC=OPA2604E;OPA2604E;Opamps;Burr-Brown;JFET, Low Noise 11nV/RTHz
*SYM=BBOPAMP
* OPA2604E Op-Amp 
*
* REVISED 3/21/92 BCB added input bias current correction and 
*                     current and voltage noise
*
* CONNECTIONS:   NON-INVERTING INPUT
*                | INVERTING INPUT
*                | | POSITIVE POWER SUPPLY
*                | | | NEGATIVE POWER SUPPLY
*                | | | | OUTPUT
*                | | | | |
.SUBCKT OPA2604E 1 2 3 4 5
*
C1   11 12 22.85E-12
C2    6  7 32.00E-12
DC    5 53 DX
DE   54  5 DX
DLP  90 91 DX
DLN  92 90 DX
DP    4  3 DX
EGND 99  0 POLY(2) 3 0 4 0 0 .5 .5
FB    7 99 POLY(5) VB VC VE VLP VLN 0 418.4E3 -40E3 40E3 40E3 -40E3
GA    6  0 11 12 2.011E-3
GCM   0  6 10 99 20.11E-9
ISS   3 10 DC 800.0E-6
HLIM 90  0 VLIM 1K
J1   11  2 10 JX
J2   12  64 10 JX
G11 2 4 POLY(4) 10 2 11 2 4 2 66 0 0 1E-12 1E-12 1E-12 6E-6
G21 1 4 POLY(4) 10 1 12 1 4 1 68 0 0 1E-12 1E-12 1E-12 6E-6
R2    6  9 100.0E3
RD1   4 11 497.4
RD2   4 12 497.4
RO1   8  5 25
RO2   7 99 75
*  RP    3  4 6.294E3
RSS  10 99 250.0E3
VB    9  0 DC 0
VC    3 53 DC 3
VE   54  4 DC 3
VLIM  7  8 DC 0
VLP  91  0 DC 50
VLN   0 92 DC 50
*
* OPA2604 "E" - ENHANCEMENTS
*
* OUTPUT SUPPLY MIRROR
FQ3   0 20 POLY(1) VLIM 0  1