* -------------------------------------------------------------------------
*    Spectrum Software, all rights reserved, copywrite 1994,
*    Micro-Cap V Digital Library
*
*    Parts in this library are modeled at ambient room temperature (TA=25øC)
*    unless otherwise noted. Delays were taken from tables specifying a load
*    capacitance of 50pF.  (CL = 50pF unless otherwise stated.)
*
*    The CMOS Logic library contains parts found in the National CMOS
*    Logic Databook, 1988, and Motorola CMOS Logic Data book, 1991, DL131.
*
*    Note that the constraint data from the Motorola book listed above had
*    the min and max values reversed.  In this library, they are transposed
*    so that min constraint times represent best case scenarios (as in 
*    min delay times), and max constraint times represent worst case
*    scenarios.  This is then consistent with the National data book.

* ----------------------------------------------------------- CD4000----
*
*  Dual 3-Input NOR Gate plus Inverter
*
*  The CMOS Logic Data Book, 1988, National Pages 5-3 to 5-5
*  bss    2/14/95
*
.SUBCKT CD4000 A B C D E F G H K L
+  optional: VDD=$G_CD4000_VDD VSS=$G_CD4000_VSS
+  params: MNTYMXDLY=0 IO_LEVEL=0
*
U1 nora(3,2) VDD VSS
+    A B C D E F H K
+    DLY_4000 IO_4000UB MNTYMXDLY={MNTYMXDLY} IO_LEVEL={IO_LEVEL}

U2 inv VDD VSS
+   G L
+   DLY_4000 IO_4000UB MNTYMXDLY={MNTYMXDLY} IO_LEVEL={IO_LEVEL}

.model DLY_4000 ugate (TPLHMN=-1 TPLHTY=50ns TPLHMX=120ns
+                     TPHLMN=-1 TPHLTY=40ns TPHLMX=80ns)

.ENDS CD4000
*
*
* ----------------------------------------------------------- CD4000UB----
*
*  Dual 3-Input NOR Gate plus Inverter
*
*  The CMOS Logic Data Book, 1991, Motorola Pages 6-2 to 6-4
*  jds    6/6/94
*  This part is shown in the data book as MC14000UB
*
.SUBCKT CD4000UB IN1A IN2A IN3A OUTA IN1B IN2B IN3B OUTB IN1C OUTC
+  optional: VDD=$G_CD4000_VDD VSS=$G_CD4000_VSS
+  params: MNTYMXDLY=0 IO_LEVEL=0
*
Uf0 nora(3,2) VDD VSS
+    IN1A IN2A IN3A IN1B IN2B IN3B OUTA OUTB
+    DLY_MOD IO_4000UB MNTYMXDLY={MNTYMXDLY} IO_LEVEL={IO_LEVEL}

uf1 inv VDD VSS
+   IN1C OUTC
+   DLY_MOD IO_4000UB MNTYMXDLY={MNTYMXDLY} IO_LEVEL={IO_LEVEL}

.model DLY_MOD ugate (TPLHMN=-1 TPLHTY=115ns TPLHMX=230ns
+                     TPHLMN=-1 TPHLTY=115ns TPHLMX=230ns)

.ENDS CD4000UB
*
*
* ----------------------------------------------------------- CD4001B----
*
*  Quad 2-Input NOR Gate
*
*  The CMOS Logic Data Book, 1991, Motorola Pages 6-5 to 6-14
*  jds    6/6/94
*  This part is shown in the data book as MC14001B
*
.SUBCKT CD4001B IN1A IN2A OUTA
+  optional: VDD=$G_CD4000_VDD VSS=$G_CD4000_VSS
+  params: MNTYMXDLY=0 IO_LEVEL=0
*
Uf0 nor(2) VDD VSS
+   IN1A IN2A OUTA
+   DLY_MOD IO_4000B MNTYMXDLY={MNTYMXDLY} IO_LEVEL={IO_LEVEL}

.model DLY_MOD ugate (TPLHMN=-1 TPLHTY=125ns TPLHMX=250ns
+                     TPHLMN=-1 TPHLTY=125ns TPHLMX=250ns)

.ENDS CD4001B
*
*
* ----------------------------------------------------------- CD4001UB----
*
*  Quad 2-Input NOR Gate
*
*  The CMOS Logic Data Book, 1991, Motorola Pages 6-14 to 6-18
*  jds    6/6/94
*  This part is shown in the data book as MC14001UB
*
.SUBCKT CD4001UB IN1A IN2A OUTA
+  optional: VDD=$G_CD4000_VDD VSS=$G_CD4000_VSS
+  params: MNTYMXDLY=0 IO_LEVEL=0
*
Uf0 nor(2) VDD VSS
+   IN1A IN2A OUTA
+   DLY_MOD IO_4000UB MNTYMXDLY={MNTYMXDLY} IO_LEVEL={IO_LEVEL}

.model DLY_MOD ugate (TPLHMN=-1 TPLHTY=90ns TPLHMX=180ns
+                     TPHLMN=-1 TPHLTY=90ns TPHLMX=180ns)

.ENDS CD4001UB
*
*
* ----------------------------------------------------------- CD4002B----
*
*  Dual 4-Input NOR Gate
*
*  The CMOS Logic Data Book, 1991, Motorola Pages 6-5 to 6-14
*  jds    6/6/94
*  This part is shown in the data book as MC14002B
*
.SUBCKT CD4002B IN1A IN2A IN3A IN4A OUTA
+  optional: VDD=$G_CD4000_VDD VSS=$G_CD4000_VSS
+  params: MNTYMXDLY=0 IO_LEVEL=0
*
Uf0 nor(4) VDD VSS
+   IN1A IN2A IN3A IN4A OUTA
+   DLY_MOD IO_4000B MNTYMXDLY={MNTYMXDLY} IO_LEVEL={IO_LEVEL}

.model DLY_MOD ugate (TPLHMN=-1 TPLHTY=160ns TPLHMX=300ns
+                     TPHLMN=-1 TPHLTY=160ns TPHLMX=300ns)

.ENDS CD4002B
*
*
* ----------------------------------------------------------- CD4002UB----
*
*  Dual 4-Input NOR Gate
*
*  The CMOS Logic Data Book, 1991, Motorola Pages 6-14 to 6-18
*  jds    6/6/94
*  This part is shown in the data book as MC14002UB
*
.SUBCKT CD4002UB IN1A IN2A IN3A IN4A OUTA
+  optional: VDD=$G_CD4000_VDD VSS=$G_CD4000_VSS
+  params: MNTYMXDLY=0 IO_LEVEL=0
*
Uf0 nor(4) VDD VSS
+   IN1A IN2A IN3A IN4A OUTA
+   DLY_MOD IO_4000UB MNTYMXDLY={MNTYMXDLY} IO_LEVEL={IO_LEVEL}

.model DLY_MOD ugate (TPLHMN=-1 TPLHTY=90ns TPLHMX=180ns
+                     TPHLMN=-1 TPHLTY=90ns TPHLMX=180ns)

.ENDS CD4002UB
*
*
*------------------------------------------------------------CD4006B-----

* 18-Bit Static Shift Register
* National CMOS Logic Databook, 1988, pages 5-242 to 5-25
* jat 8/29/95

.SUBCKT CD4006B
+ CLK D1 D2 D3 D4 OUT4D1 OUT4D2 OUT5D2 OUT4D3 OUT4D4 OUT5D4
+ OPTIONAL:  VDD=$G_CD4000_VDD VSS=$G_CD4000_VSS
+ PARAMS:  MNTYMXDLY=0 IO_LEVEL=0

U1 INV VDD VSS
+ CLK CLKBAR
+ D0_GATE IO_4000B MNTYMXDLY={MNTYMXDLY} IO_LEVEL={IO_LEVEL}

U2 DFF(18) VDD VSS
+ $D_HI $D_HI CLKBAR
+ D1 Q1 Q2 Q3 D2 Q5 Q6 Q7 Q8 D3 Q10 Q11 Q12 D4 Q14 Q15 Q16 Q17
+ Q1 Q2 Q3 Q4 Q5 Q6 Q7 Q8 Q9 Q10 Q11 Q12 Q13 Q14 Q15 Q16 Q17 Q18
+ $D_NC $D_NC $D_NC $D_NC $D_NC $D_NC $D_NC $D_NC $D_NC $D_NC $D_NC $D_NC 
+ $D_NC $D_NC $D_NC $D_NC $D_NC $D_NC
+ DLY_DFF IO_4000B MNTYMXDLY={MNTYMXDLY} IO_LEVEL={IO_LEVEL}

.MODEL DLY_DFF UEFF(TWCLKLMN=-1 TWCLKLTY=100NS TWCLKLMX=200NS
+                   TWCLKLMN=-1 TWCLKLTY=100NS TWCLKLMX=200NS)

U3 PINDLY(6,0,0) VDD VSS
+ Q4 Q8 Q9 Q13 Q17 Q18
+ OUT4D1 OUT4D2 OUT5D2 OUT4D3 OUT4D4 OUT5D4
+ IO_4000B MNTYMXDLY={MNTYMXDLY} IO_LEVEL={IO_LEVEL}
+ PINDLY:
+         OUT4D1 OUT4D2 OUT5D2 OUT4D3 OUT4D4 OUT5D4 = {
+            CASE(
+              (TRN_LH | TRN_HL), DELAY(-1,200NS,400NS),
+              DELAY(-1,201NS,401NS))}

U4 CONSTRAINT(5) VDD VSS
+ CLK D1 D2 D3 D4
+ IO_4000B IO_LEVEL={IO_LEVEL}
+ SETUP_HOLD:
+    CLOCK HL = CLK
+    DATA(4) = D1 D2 D3 D4
+    SETUPTIME = 50NS
+    HOLDTIME = 55NS
+ FREQ:
+    NODE = CLK
+    MAXFREQ = 5MEG

.ENDS CD4006B

*------------------------------------------------------------CD4008B-----

* 4 Bit Full Adder
* Motorola CMOS Logic Data, 1991, pages 6-27 to 6-32
* jat 8/29/95
* This part is shown in the data book as MC14008B

.SUBCKT CD4008B
+ A1 A2 A3 A4 B1 B2 B3 B4 CIN COUT S1 S2 S3 S4
+ OPTIONAL:  VDD=$G_CD4000_VDD VSS=$G_CD4000_VSS
+ PARAMS:  MNTYMXDLY=0 IO_LEVEL=0

U1 LOGICEXP(9,5) VDD VSS
+ A1 A2 A3 A4 B1 B2 B3 B4 CIN
+ S_1 S_2 S_3 S_4 C_OUT
+ D0_GATE IO_4000B MNTYMXDLY={MNTYMXDLY} IO_LEVEL={IO_LEVEL}
+ LOGIC:
+   NAND1 = {~(A1 & B1)}
+   NOR1  = {~(A1 | B1)}
+   NAND2 = {~(A2 & B2)}
+   NOR2  = {~(A2 | B2)}
+   NAND3 = {~(A3 & B3)}
+   NOR3  = {~(A3 | B3)}
+   NAND4 = {~(A4 & B4)}
+   NOR4  = {~(A4 | B4)}
+   NORS1 = {~((~NAND1) | (NOR1))}
+   NORS2 = {~((~NAND2) | (NOR2))}
+   NORS3 = {~((~NAND3) | (NOR3))}
+   NORS4 = {~((~NAND4) | (NOR4))}
+   S_1 = {CIN ^ NORS1}
+   INS2 = {(~NAND1) | ((~NOR1) & (CIN))}
+   INS3 = {(~NAND2) | ((~NOR2) & (INS2))}
+   INS4 = {(~NAND3) | ((~NOR3) & (INS3))}
+   S_2 = {INS2 ^ NORS2}
+   S_3 = {INS3 ^ NORS3}
+   S_4 = {INS4 ^ NORS4}
+   ANDCOUT = {(~NOR4) & (~NOR3) & (~NOR2) & (~NOR1)}
+   ANDORCOUT4 = {~NAND4}
+   ANDORCOUT3 = {(~NOR4) & (~NAND3)}
+   ANDORCOUT2 = {(~NOR4) & (~NOR3) & (~NAND2)}
+   ANDORCOUT1 = {(~NOR4) & (~NOR3) & (~NOR2) & (~NAND1)}
+   ORCOUT = {ANDORCOUT4 | ANDORCOUT3 | ANDORCOUT2 | ANDORCOUT1}
+   C_OUT = {((CIN) & (ANDCOUT)) | ORCOUT}

U2 PINDLY(5,0,9) VDD VSS
+ S_1 S_2 S_3 S_4 C_OUT
+ A1 A2 A3 A4 B1 B2 B3 B4 CIN
+ S1 S2 S3 S4 COUT
+ IO_4000B MNTYMXDLY={MNTYMXDLY} IO_LEVEL={IO_LEVEL}
+ BOOLEAN:
+         SUMIN = {CHANGED(A1,0) | CHANGED(A2,0) | CHANGED(A3,0) |
+                  CHANGED(A4,0) | CHANGED(B1,0) | CHANGED(B2,0) |
+                  CHANGED(B3,0) | CHANGED(B4,0)}
+         CARRYIN = {CHANGED(CIN,0)}  
+ PINDLY:
+         S1 S2 S3 S4 = {
+           CASE(
+                 SUMIN & (TRN_LH | TRN_HL), DELAY(-1,400NS,800NS),
+                 CARRYIN & (TRN_LH | TRN_HL), DELAY(-1,375NS,750NS),
+                 DELAY(-1,401NS,801NS))}
+         COUT = {
+           CASE(
+                 SUMIN & (TRN_LH | TRN_HL), DELAY(-1,305NS,610NS),
+                 CARRYIN & (TRN_LH | TRN_HL), DELAY(-1,170NS,340NS),
+                 DELAY(-1,306NS,611NS))}

.ENDS CD4008B

*-------------------------------------------------------------CD4009UB----

* CMOS Hex Buffer/Converter
* jat 12/13/95
* Harris AnswerFax, document # 940

.SUBCKT CD4009UB A ABAR
+ OPTIONAL:  VDD=$G_CD4000_VDD VSS=$G_CD4000_VSS
+ PARAMS:  MNTYMXDLY=0 IO_LEVEL=0

U1 INV VDD VSS
+ A ABARO
+ D0_GATE IO_4000UB MNTYMXDLY={MNTYMXDLY} IO_LEVEL={IO_LEVEL}

U2 PINDLY(1,0,0) VDD VSS
+ ABARO ABAR
+ IO_4000UB MNTYMXDLY={MNTYMXDLY} IO_LEVEL={IO_LEVEL}
+ PINDLY:
+   ABAR = {
+     CASE(
+        TRN_LH, DELAY(-1,70NS,140NS),
+        TRN_HL, DELAY(-1,30NS,60NS),
+        DELAY(-1,71NS,141NS))}

.ENDS CD4009UB

*-------------------------------------------------------------CD4010B----

* CMOS Hex Buffer/Converter
* jat 12/13/95
* Harris AnswerFax, document # 940

.SUBCKT CD4010B A G
+ OPTIONAL:  VDD=$G_CD4000_VDD VSS=$G_CD4000_VSS
+ PARAMS:  MNTYMXDLY=0 IO_LEVEL=0

U1 PINDLY(1,0,0) VDD VSS
+ A G
+ IO_4000B MNTYMXDLY={MNTYMXDLY} IO_LEVEL={IO_LEVEL}
+ PINDLY:
+   G = {
+     CASE(
+        TRN_LH, DELAY(-1,100NS,200NS),
+        TRN_HL, DELAY(-1,65NS,130NS),
+        DELAY(-1,101NS,201NS))}

.ENDS CD4010B

* ----------------------------------------------------------- CD4011B----
*
*  Quad 2-Input NAND Gate
*
*  The CMOS Logic Data Book, 1991, Motorola Pages 6-5 to 6-14
*  jds    6/6/94
*  This part is shown in the data book as MC14011B
*
.SUBCKT CD4011B IN1A IN2A OUTA
+  optional: VDD=$G_CD4000_VDD VSS=$G_CD4000_VSS
+  params: MNTYMXDLY=0 IO_LEVEL=0
*
Uf0 nand(2) VDD VSS
+   IN1A IN2A OUTA
+   DLY_MOD IO_4000B MNTYMXDLY={MNTYMXDLY} IO_LEVEL={IO_LEVEL}

.model DLY_MOD ugate (TPLHMN=-1 TPLHTY=125ns TPLHMX=250ns
+                     TPHLMN=-1 TPHLTY=125ns TPHLMX=250ns)

.ENDS CD4011B
*
*
* ----------------------------------------------------------- CD4011UB----
*
*  Quad 2-Input NAND Gate
*
*  The CMOS Logic Data Book, 1991, Motorola Pages 6-14 to 6-18
*  jds    6/6/94
*  This part is shown in the data book as MC14011UB
*
.SUBCKT CD4011UB IN1A IN2A OUTA
+  optional: VDD=$G_CD4000_VDD VSS=$G_CD4000_VSS
+  params: MNTYMXDLY=0 IO_LEVEL=0
*
Uf0 nand(2) VDD VSS
+   IN1A IN2A OUTA
+   DLY_MOD IO_4000UB MNTYMXDLY={MNTYMXDLY} IO_LEVEL={IO_LEVEL}

.model DLY_MOD ugate (TPLHMN=-1 TPLHTY=90ns TPLHMX=180ns
+                     TPHLMN=-1 TPHLTY=90ns TPHLMX=180ns)

.ENDS CD4011UB
*
*
* ----------------------------------------------------------- CD4012B----
*
*  Dual 4-Input NAND Gate
*
*  The CMOS Logic Data Book, 1991, Motorola Pages 6-5 to 6-14
*  jds    6/6/94
*  This part is shown in the data book as MC14012B
*
.SUBCKT CD4012B IN1A IN2A IN3A IN4A OUTA
+  optional: VDD=$G_CD4000_VDD VSS=$G_CD4000_VSS
+  params: MNTYMXDLY=0 IO_LEVEL=0
*
Uf0 nand(4) VDD VSS
+   IN1A IN2A IN3A IN4A OUTA
+   DLY_MOD IO_4000B MNTYMXDLY={MNTYMXDLY} IO_LEVEL={IO_LEVEL}

.model DLY_MOD ugate (TPLHMN=-1 TPLHTY=160ns TPLHMX=300ns
+                     TPHLMN=-1 TPHLTY=160ns TPHLMX=300ns)

.ENDS CD4012B
*
*
* ----------------------------------------------------------- CD4012UB----
*
*  Dual 4-Input NAND Gate
*
*  The CMOS Logic Data Book, 1991, Motorola Pages 6-14 to 6-18
*  jds    6/6/94
*  This part is shown in the data book as MC14012UB
*
.SUBCKT CD4012UB IN1A IN2A IN3A IN4A OUTA
+  optional: VDD=$G_CD4000_VDD VSS=$G_CD4000_VSS
+  params: MNTYMXDLY=0 IO_LEVEL=0
*
Uf0 nand(4) VDD VSS
+   IN1A IN2A IN3A IN4A OUTA
+   DLY_MOD IO_4000UB MNTYMXDLY={MNTYMXDLY} IO_LEVEL={IO_LEVEL}

.model DLY_MOD ugate (TPLHMN=-1 TPLHTY=90ns TPLHMX=180ns
+                     TPHLMN=-1 TPHLTY=90ns TPHLMX=180ns)

.ENDS CD4012UB
*
*
* ----------------------------------------------------------- CD4013B----
*
*  Dual Type D Flip-Flop
*
*  The CMOS Logic Data Book, 1991, Motorola Pages 6-33 to 6-36
*  jds    6/6/94
*  This part is shown in the data book as MC14013B
*
.SUBCKT CD4013B SA RA CA DA QA QABAR
+  optional: VDD=$G_CD4000_VDD VSS=$G_CD4000_VSS
+  params: MNTYMXDLY=0 IO_LEVEL=0
*
Uf0 inva(2) VDD VSS
+   SA RA prebar clrbar
+   D0_GATE IO_4000B MNTYMXDLY={MNTYMXDLY} IO_LEVEL={IO_LEVEL}

Uf1 dff(1) VDD VSS
+   prebar clrbar CA DA Q_A Q_ABAR
+   DFF4013B IO_4000B MNTYMXDLY={MNTYMXDLY} IO_LEVEL={IO_LEVEL}

.MODEL DFF4013B UEFF(TWPCLMN=250NS TWPCLTY=125NS TWPCLMX=-1
+                    TWCLKLMN=250NS TWCLKLTY=125NS TWCLKLMX=-1
+                    TWCLKHMN=250NS TWCLKHTY=125NS TWCLKHMX=-1
+                    TSUDCLKMN=-1NS TSUDCLKTY=250NS TSUDCLKMX=-1
+                    THDCLKMN=40NS THDCLKTY=20NS THDCLKMX=-1)

U3 PINDLY(2,0,3) VDD VSS
+ Q_A Q_ABAR
+ CA SA RA
+ QA QABAR
+ IO_4000B MNTYMXDLY={MNTYMXDLY} IO_LEVEL={IO_LEVEL}
+ BOOLEAN:
+          EDGE = {CHANGED_LH(CA,0)}
+          SET = {CHANGED_LH(SA,0)}
+          CLEAR = {CHANGED_LH(RA,0)}
+ PINDLY:
+          QA QABAR = {
+            CASE(
+               SET, DELAY(-1,175NS,350NS),
+               CLEAR, DELAY(-1,225NS,450NS),
+               EDGE & (TRN_LH | TRN_HL), DELAY(-1,175NS,350NS),
+               DELAY(-1,226NS,451NS))}
  
U4 CONSTRAINT(3) VDD VSS
+ CA SA RA
+ IO_4000B IO_LEVEL={IO_LEVEL}
+ FREQ:
+        NODE = CA
+        MAXFREQ = 2MEG
+ SETUP_HOLD:
+             CLOCK LH = CA
+             DATA(2) = SA RA
+             SETUPTIME_LO = 80NS
+             HOLDTIME_LO = 50NS

.ENDS CD4013B
*
*------------------------------------------------------------CD4014B-----

* CD4014B 8 Stage Static Shift Register
* National Semiconductor, CMOS Logic Databook, 1988, pages 5-41 to 5-44
* jat 8/18/95

.SUBCKT CD4014B
+ DS P1 P2 P3 P4 P5 P6 P7 P8 CLK P/S Q6 Q7 Q8
+ OPTIONAL:  VDD=$G_CD4000_VDD VSS=$G_CD4000_VSS
+ PARAMS:  MNTYMXDLY=0 IO_LEVEL=0

U1 LOGICEXP(18,8) VDD VSS
+ P/S P1 P2 P3 P4 P5 P6 P7 P8 DS Q_1 Q_2 Q_3 Q_4 Q_5 Q_6 Q_7 Q_8
+ D1 D2 D3 D4 D5 D6 D7 D8
+ D0_GATE IO_4000B MNTYMXDLY={MNTYMXDLY} IO_LEVEL={IO_LEVEL}
+ LOGIC:
+       D1 = {(P/S & P1) | ((~P/S) & DS)}
+       D2 = {(P/S & P2) | ((~P/S) & Q_1)}
+       D3 = {(P/S & P3) | ((~P/S) & Q_2)}
+       D4 = {(P/S & P4) | ((~P/S) & Q_3)}
+       D5 = {(P/S & P5) | ((~P/S) & Q_4)}
+       D6 = {(P/S & P6) | ((~P/S) & Q_5)}
+       D7 = {(P/S & P7) | ((~P/S) & Q_6)}
+       D8 = {(P/S & P8) | ((~P/S) & Q_7)}

U2 DFF(8) VDD VSS
+ $D_HI $D_HI CLK
+ D1 D2 D3 D4 D5 D6 D7 D8
+ Q_1 Q_2 Q_3 Q_4 Q_5 Q_6 Q_7 Q_8
+ $D_NC $D_NC $D_NC $D_NC $D_NC $D_NC $D_NC $D_NC
+ DFF_DLY IO_4000B MNTYMXDLY={MNTYMXDLY} IO_LEVEL={IO_LEVEL}

.MODEL DFF_DLY UEFF(TWCLKLMN=-1 TWCLKLTY=90NS TWCLKLMX=180NS)

U3 PINDLY(3,0,0) VDD VSS
+ Q_6 Q_7 Q_8
+ Q6 Q7 Q8
+ IO_4000B MNTYMXDLY={MNTYMXDLY} IO_LEVEL={IO_LEVEL}
+ PINDLY:
+         Q6 Q7 Q8 = {
+           CASE(
+               TRN_LH | TRN_HL, DELAY(-1,200NS,320NS),
+               DELAY(-1,201NS,321NS))}

U4 CONSTRAINT(11) VDD VSS
+ CLK DS P1 P2 P3 P4 P5 P6 P7 P8 P/S
+ IO_4000B IO_LEVEL={IO_LEVEL}
+ FREQ:
+       NODE = CLK
+       MAXFREQ = 4MEG
+ SETUP_HOLD:
+             CLOCK LH = CLK
+             DATA(1) = DS
+             SETUPTIME = 60NS
+ SETUP_HOLD:
+             CLOCK LH = CLK
+             DATA(8) =  P1 P2 P3 P4 P5 P6 P7 P8
+             SETUPTIME = 80NS
+ SETUP_HOLD:
+             CLOCK LH = CLK
+             DATA(1) = P/S
+             SETUPTIME = 100NS

.ENDS CD4014B

*------------------------------------------------------------CD4015B-----

* Dual 4-Bit Static Shift Register
* National Semiconductor, CMOS Logic Databook, 1988, pages 5-45 to 5-49
* jat 8/18/95

.SUBCKT CD4015B
+ DA CLKA RA Q1A Q2A Q3A Q4A
+ OPTIONAL:  VDD=$G_CD4000_VDD VSS=$G_CD4000_VSS
+ PARAMS:  MNTYMXDLY=0 IO_LEVEL=0

U1 INV VDD VSS
+ RA RESET
+ D0_GATE IO_4000B MNTYMXDLY={MNTYMXDLY} IO_LEVEL={IO_LEVEL}

U2 DFF(4) VDD VSS
+ $D_HI RESET CLKA
+ DA Q_1A Q_2A Q_3A
+ Q_1A Q_2A Q_3A Q_4A
+ $D_NC $D_NC $D_NC $D_NC
+ DFF_DLY IO_4000B MNTYMXDLY={MNTYMXDLY} IO_LEVEL={IO_LEVEL}

.MODEL DFF_DLY UEFF(TWCLKLMN=-1 TWCLKLTY=160NS TWCLKLMX=250NS
+                   TWCLKHMN=-1 TWCLKHTY=160NS TWCLKHMX=250NS)

U3 PINDLY(4,0,0) VDD VSS
+ Q_1A Q_2A Q_3A Q_4A
+ Q1A Q2A Q3A Q4A
+ IO_4000B MNTYMXDLY={MNTYMXDLY} IO_LEVEL={IO_LEVEL}
+ PINDLY:
+         Q1A Q2A Q3A Q4A = {
+           CASE(
+             (TRN_LH | TRN_HL), DELAY(-1,230NS,350NS),
+             DELAY(-1,231NS,351NS))}

U4 CONSTRAINT(2) VDD VSS
+ CLKA DA
+ IO_4000B IO_LEVEL={IO_LEVEL}
+ SETUP_HOLD:
+             CLOCK LH = CLKA
+             DATA(1) = DA
+             SETUPTIME = 50NS
+ FREQ:
+       NODE = CLKA
+       MAXFREQ = 3.5MEG

.ENDS CD4015B

* ----------------------------------------------------------- CD4017B----
*
*  Decade Counter
*
*  The CMOS Logic Data Book, 1991, Motorola Pages 6-54 to 6-58
*  jds    6/6/94
*  This part is shown in the data book as MC14017B
*  Note that the NAND gate feeding into the 3rd flip-flops D input should
*  be an AND gate for the circuit to operate as in the timing diagram.
*
.SUBCKT CD4017B CLK CLKENBAR RESET COUT Q0 Q1 Q2 Q3 Q4 Q5 Q6 Q7 Q8 Q9
+  optional: VDD=$G_CD4000_VDD VSS=$G_CD4000_VSS
+  params: MNTYMXDLY=0 IO_LEVEL=0

U14017B LOGICEXP(13,14) VDD VSS
+      CLK CLKENBAR RESET q1ff q2ff q3ff q4ff q5ff
+      q1ffbar q2ffbar q3ffbar q4ffbar q5ffbar
+      clock clear i1
+      COUT_O Q0_O Q1_O Q2_O Q3_O Q4_O Q5_O Q6_O Q7_O Q8_O Q9_O
+      D0_GATE IO_4000B MNTYMXDLY={MNTYMXDLY} IO_LEVEL={IO_LEVEL}
+
+    LOGIC:
+      clock = {( CLK & ~CLKENBAR )}
+      clear = { (~RESET) }
+      i1 = { (q2ff & (q1ff | q3ff)) }
+      Q0_O = { (q1ffbar & q5ffbar) }
+      Q1_O = { (q1ff & q2ffbar) }
+      Q2_O = { (q2ff & q3ffbar) }
+      Q3_O = { (q3ff & q4ffbar) }
+      Q4_O = { (q4ff & q5ffbar) }
+      Q5_O = { (q1ff & q5ff) }
+      Q6_O = { (q1ffbar & q2ff) }
+      Q7_O = { (q2ffbar & q3ff) }
+      Q8_O = { (q3ffbar & q4ff) }
+      Q9_O = { (q5ff & q4ffbar) }
+      COUT_O = { q5ffbar }

Uf0 dff(5) VDD VSS
+   $D_HI clear clock q5ffbar q1ff i1 q3ff q4ff
+   q1ff q2ff q3ff q4ff q5ff q1ffbar q2ffbar q3ffbar q4ffbar q5ffbar
+   DLY_DFF IO_4000B MNTYMXDLY={MNTYMXDLY} IO_LEVEL={IO_LEVEL}

.MODEL DLY_DFF UEFF(TWCLKLMN=-1 TWCLKLTY=125NS TWCLKLMX=250NS
+                   TWCLKHMN=-1 TWCLKHTY=125NS TWCLKHMX=250NS)

Udly PINDLY (11,0,2) VDD VSS
+    COUT_O Q0_O Q1_O Q2_O Q3_O Q4_O Q5_O Q6_O Q7_O Q8_O Q9_O
+    CLK RESET
+    COUT Q0 Q1 Q2 Q3 Q4 Q5 Q6 Q7 Q8 Q9
+    IO_4000B MNTYMXDLY={MNTYMXDLY} IO_LEVEL={IO_LEVEL}
+
+    BOOLEAN:
+     CP = {CHANGED_LH(CLK,0)}
+     CLR = { CHANGED_LH(RESET,0) }
+
+    PINDLY:
+       Q0 Q1 Q2 Q3 Q4 Q5 Q6 Q7 Q8 Q9 = {
+            CASE(
+                 CLR, DELAY(-1,500ns,1us),
+                 CP, DELAY(-1,500ns,1us),
+                 DELAY(-1,501ns,1.001us)
+                )
+            }
+       COUT = {
+            CASE(
+                 CLR, DELAY(-1,400ns,800ns),
+                 CP, DELAY(-1,400ns,800ns),
+                 DELAY(-1,401ns,801ns)
+                )
+            }

Ucnstr CONSTRAINT(3) VDD VSS
+          CLKENBAR CLK RESET
+          IO_4000B
+
+      FREQ:
+         NODE = CLK
+         MAXFREQ = 5MEG
+      WIDTH:
+         NODE = RESET
+         MIN_HI = 250ns
+      SETUP_HOLD:
+        CLOCK LH = CLK
+        DATA(1) = CLKENBAR
+        SETUPTIME_HI = 175ns
+        SETUPTIME_LO = 260ns
+        WHEN = { RESET != '1 }
+      SETUP_HOLD:
+        CLOCK LH = CLK
+        DATA(1) = RESET
+        SETUPTIME_LO = 375ns

.ENDS CD4017B
*
*
*-------------------------------------------------------------CD4018B----

* Presettable Divide by N Counter
* National CMOS Logic Databook, 1988, pages 5-63 to 5-66
* jat 8/29/95

.SUBCKT CD4018B
+ RESET PREENAB DATA JAM1 JAM2 JAM3 JAM4 JAM5 CLOCK Q1BAR Q2BAR Q3BAR
+ Q4BAR Q5BAR
+ OPTIONAL:  VDD=$G_CD4000_VDD VSS=$G_CD4000_VSS
+ PARAMS:  MNTYMXDLY=0 IO_LEVEL=0

U1 LOGICEXP(10,11) VDD VSS
+ RESET PREENAB JAM1 JAM2 JAM3 JAM4 JAM5 Q_1 Q_2BAR Q_3
+ PRESETBAR1 RESETBAR1 PRESETBAR2 RESETBAR2 PRESETBAR3 RESETBAR3
+ PRESETBAR4 RESETBAR4 PRESETBAR5 RESETBAR5 D3
+ D0_GATE IO_4000B MNTYMXDLY={MNTYMXDLY} IO_LEVEL={IO_LEVEL}
+ LOGIC:
+   PRESETBAR1 = {~(((~RESET) & PREENAB) & JAM1)}
+   RESETBAR1 = {((~RESET) & (~PREENAB)) | ((~RESET) & JAM1)}
+   PRESETBAR2 = {~(((~RESET) & PREENAB) & JAM2)}
+   RESETBAR2 = {((~RESET) & (~PREENAB)) | ((~RESET) & JAM2)}
+   PRESETBAR3 = {~(((~RESET) & PREENAB) & JAM3)}
+   RESETBAR3 = {((~RESET) & (~PREENAB)) | ((~RESET) & JAM3)}
+   PRESETBAR4 = {~(((~RESET) & PREENAB) & JAM4)}
+   RESETBAR4 = {((~RESET) & (~PREENAB)) | ((~RESET) & JAM4)}
+   PRESETBAR5 = {~(((~RESET) & PREENAB) & JAM5)}
+   RESETBAR5 = {((~RESET) & (~PREENAB)) | ((~RESET) & JAM5)}
+   D3 = {~(Q_2BAR | (~(Q_1 | Q_3)))}

U2 DFF(1) VDD VSS
+ PRESETBAR1 RESETBAR1 CLOCK
+ DATA Q_1 Q_1BAR
+ FFDLY IO_4000B MNTYMXDLY={MNTYMXDLY} IO_LEVEL={IO_LEVEL}

U3 DFF(1) VDD VSS
+ PRESETBAR2 RESETBAR2 CLOCK
+ Q_1 Q_2 Q_2BAR
+ FFDLY IO_4000B MNTYMXDLY={MNTYMXDLY} IO_LEVEL={IO_LEVEL}

U4 DFF(1) VDD VSS
+ PRESETBAR3 RESETBAR3 CLOCK
+ D3 Q_3 Q_3BAR
+ FFDLY IO_4000B MNTYMXDLY={MNTYMXDLY} IO_LEVEL={IO_LEVEL}

U5 DFF(1) VDD VSS
+ PRESETBAR4 RESETBAR4 CLOCK
+ Q_3 Q_4 Q_4BAR
+ FFDLY IO_4000B MNTYMXDLY={MNTYMXDLY} IO_LEVEL={IO_LEVEL}

U6 DFF(1) VDD VSS
+ PRESETBAR5 RESETBAR5 CLOCK
+ Q_4 $D_NC Q_5BAR
+ FFDLY IO_4000B MNTYMXDLY={MNTYMXDLY} IO_LEVEL={IO_LEVEL}

.MODEL FFDLY UEFF(TWPCLMN=-1 TWPCLTY=100NS TWPCLMX=400NS
+                 TWCLKLMN=-1 TWCLKLTY=125NS TWCLKLMX=500NS
+                 TWCLKHMN=-1 TWCLKHTY=125NS TWCLKHMX=500NS
+                 TSUDCLKMN=-1 TSUDCLKTY=40NS TSUDCLKMX=200NS
+                 TSUPCCLKHMN=-1 TSUPCCLKHTY=100NS TSUPCCLKHMX=400NS)

U7 PINDLY(5,0,0) VDD VSS
+ Q_1BAR Q_2BAR Q_3BAR Q_4BAR Q_5BAR
+ Q1BAR Q2BAR Q3BAR Q4BAR Q5BAR
+ IO_4000B MNTYMXDLY={MNTYMXDLY} IO_LEVEL={IO_LEVEL}
+ PINDLY:
+          Q1BAR Q2BAR Q3BAR Q4BAR Q5BAR = {
+             CASE(
+                (TRN_LH | TRN_HL), DELAY(-1,235NS,700NS),
+                DELAY(-1,236NS,701NS))}

U8 CONSTRAINT(1) VDD VSS
+ CLOCK
+ IO_4000B IO_LEVEL={IO_LEVEL}
+ FREQ:
+      NODE = CLOCK
+      MAXFREQ = 4MEG

.ENDS CD4018B   


* ----------------------------------------------------------- CD4019B----
*
*  Quad AND-OR Select Gate
*
*  The CMOS Logic Data Book, 1988, National Semiconductor Pages 5-67 to 5-69
*  jds    6/8/94
*
.SUBCKT CD4019B KA KB A1 A2 A3 A4 B1 B2 B3 B4 D1 D2 D3 D4
+  optional: VDD=$G_CD4000_VDD VSS=$G_CD4000_VSS
+  params: MNTYMXDLY=0 IO_LEVEL=0
*
Uf1 ao(2,2) VDD VSS
+   A1 KA B1 KB D1
+   DLY_MOD IO_4000B MNTYMXDLY={MNTYMXDLY} IO_LEVEL={IO_LEVEL}

Uf2 ao(2,2) VDD VSS
+   A2 KA B2 KB D2
+   DLY_MOD IO_4000B MNTYMXDLY={MNTYMXDLY} IO_LEVEL={IO_LEVEL}

Uf3 ao(2,2) VDD VSS
+   A3 KA B3 KB D3
+   DLY_MOD IO_4000B MNTYMXDLY={MNTYMXDLY} IO_LEVEL={IO_LEVEL}

Uf4 ao(2,2) VDD VSS
+   A4 KA B4 KB D4
+   DLY_MOD IO_4000B MNTYMXDLY={MNTYMXDLY} IO_LEVEL={IO_LEVEL}

.model DLY_MOD ugate (TPLHMN=-1 TPLHTY=100ns TPLHMX=300ns
+                     TPHLMN=-1 TPHLTY=100ns TPHLMX=300ns)

.ENDS CD4019B
*
*
* ----------------------------------------------------------- CD4020B ----
*
*  14-Stage Binary Counter
*
*  The CMOS Logic Data Book, 1991, Motorola Pages 6-63 to 6-66
*  jds    6/7/94
*  This part is shown in the data book as MC14020B
*
.SUBCKT CD4020B CLK RESET Q1 Q4 Q5 Q6 Q7 Q8 Q9 Q10 Q11 Q12 Q13 Q14
+  optional: VDD=$G_CD4000_VDD VSS=$G_CD4000_VSS
+  params: MNTYMXDLY=0 IO_LEVEL=0

uf0 inv VDD VSS
+   RESET clr
+   D0_GATE IO_4000B MNTYMXDLY={MNTYMXDLY} IO_LEVEL={IO_LEVEL}

Uf1 jkff(1) VDD VSS
+   $D_HI clr CLK $D_HI $D_HI Q1_O Q1BAR_O
+   D0_EFF IO_4000B MNTYMXDLY={MNTYMXDLY} IO_LEVEL={IO_LEVEL}

Uf2 jkff(1) VDD VSS
+   $D_HI clr Q1_O $D_HI $D_HI Q2_O Q2BAR_O
+   D0_EFF IO_4000B MNTYMXDLY={MNTYMXDLY} IO_LEVEL={IO_LEVEL}

Uf3 jkff(1) VDD VSS
+   $D_HI clr Q2_O $D_HI $D_HI Q3_O Q3BAR_O
+   D0_EFF IO_4000B MNTYMXDLY={MNTYMXDLY} IO_LEVEL={IO_LEVEL}

Uf4 jkff(1) VDD VSS
+   $D_HI clr Q3_O $D_HI $D_HI Q4_O Q4BAR_O
+   D0_EFF IO_4000B MNTYMXDLY={MNTYMXDLY} IO_LEVEL={IO_LEVEL}

Uf5 jkff(1) VDD VSS
+   $D_HI clr Q4_O $D_HI $D_HI Q5_O Q5BAR_O
+   D0_EFF IO_4000B MNTYMXDLY={MNTYMXDLY} IO_LEVEL={IO_LEVEL}

Uf6 jkff(1) VDD VSS
+   $D_HI clr Q5_O $D_HI $D_HI Q6_O Q6BAR_O
+   D0_EFF IO_4000B MNTYMXDLY={MNTYMXDLY} IO_LEVEL={IO_LEVEL}

Uf7 jkff(1) VDD VSS
+   $D_HI clr Q6_O $D_HI $D_HI Q7_O Q7BAR_O
+   D0_EFF IO_4000B MNTYMXDLY={MNTYMXDLY} IO_LEVEL={IO_LEVEL}

Uf8 jkff(1) VDD VSS
+   $D_HI clr Q7_O $D_HI $D_HI Q8_O Q8BAR_O
+   D0_EFF IO_4000B MNTYMXDLY={MNTYMXDLY} IO_LEVEL={IO_LEVEL}

Uf9 jkff(1) VDD VSS
+   $D_HI clr Q8_O $D_HI $D_HI Q9_O Q9BAR_O
+   D0_EFF IO_4000B MNTYMXDLY={MNTYMXDLY} IO_LEVEL={IO_LEVEL}

Uf10 jkff(1) VDD VSS
+   $D_HI clr Q9_O $D_HI $D_HI Q10_O Q10BAR_O
+   D0_EFF IO_4000B MNTYMXDLY={MNTYMXDLY} IO_LEVEL={IO_LEVEL}

Uf11 jkff(1) VDD VSS
+   $D_HI clr Q10_O $D_HI $D_HI Q11_O Q11BAR_O
+   D0_EFF IO_4000B MNTYMXDLY={MNTYMXDLY} IO_LEVEL={IO_LEVEL}

Uf12 jkff(1) VDD VSS
+   $D_HI clr Q11_O $D_HI $D_HI Q12_O Q12BAR_O
+   D0_EFF IO_4000B MNTYMXDLY={MNTYMXDLY} IO_LEVEL={IO_LEVEL}

Uf13 jkff(1) VDD VSS
+   $D_HI clr Q12_O $D_HI $D_HI Q13_O Q13BAR_O
+   D0_EFF IO_4000B MNTYMXDLY={MNTYMXDLY} IO_LEVEL={IO_LEVEL}

Uf14 jkff(1) VDD VSS
+   $D_HI clr Q13_O $D_HI $D_HI Q14_O Q14BAR_O
+   D0_EFF IO_4000B MNTYMXDLY={MNTYMXDLY} IO_LEVEL={IO_LEVEL}

Udly PINDLY (12,0,13) VDD VSS
+    Q1_O Q4_O Q5_O Q6_O Q7_O Q8_O Q9_O Q10_O Q11_O Q12_O Q13_O Q14_O
+    CLK RESET Q3_O Q4_O Q5_O Q6_O Q7_O Q8_O Q9_O Q10_O Q11_O Q12_O Q13_O
+    Q1 Q4 Q5 Q6 Q7 Q8 Q9 Q10 Q11 Q12 Q13 Q14
+    IO_4000B MNTYMXDLY={MNTYMXDLY} IO_LEVEL={IO_LEVEL}
+
+
+ PINDLY:
+    Q1  = {
+         CASE(
+              CHANGED(RESET,0) & TRN_HL, DELAY(-1,370ns,740ns),
+              CHANGED_HL(CLK,0) & (TRN_LH | TRN_HL), DELAY(-1,260ns,520ns),
+              DELAY(-1,371ns,741ns)
+             )
+         }
+    Q4  = {
+         CASE(
+              CHANGED(RESET,0) & TRN_HL, DELAY(-1,370ns,740ns),
+              CHANGED_HL(Q3_O,0) & (TRN_LH | TRN_HL), DELAY(-1,620ns,1300ns),
+              DELAY(-1,621ns,1301ns)
+             )
+         }
+    Q5  = {
+         CASE(
+              CHANGED(RESET,0) & TRN_HL, DELAY(-1,370ns,740ns),
+              CHANGED_HL(Q4_O,0) & (TRN_LH | TRN_HL), DELAY(-1,740ns,1560ns),
+              DELAY(-1,741ns,1561ns)
+             )
+         }
+    Q6  = {
+         CASE(
+              CHANGED(RESET,0) & TRN_HL, DELAY(-1,370ns,740ns),
+              CHANGED_HL(Q5_O,0) & (TRN_LH | TRN_HL), DELAY(-1,860ns,1820ns),
+              DELAY(-1,861ns,1821ns)
+             )
+         }
+    Q7  = {
+         CASE(
+              CHANGED(RESET,0) & TRN_HL, DELAY(-1,370ns,740ns),
+              CHANGED_HL(Q6_O,0) & (TRN_LH | TRN_HL), DELAY(-1,980ns,2080ns),
+              DELAY(-1,981ns,2081ns)
+             )
+         }
+    Q8  = {
+         CASE(
+              CHANGED(RESET,0) & TRN_HL, DELAY(-1,370ns,740ns),
+              CHANGED_HL(Q7_O,0) & (TRN_LH | TRN_HL), DELAY(-1,1100ns,2340ns),
+              DELAY(-1,1101ns,2341ns)
+             )
+         }
+    Q9  = {
+         CASE(
+              CHANGED(RESET,0) & TRN_HL, DELAY(-1,370ns,740ns),
+              CHANGED_HL(Q8_O,0) & (TRN_LH | TRN_HL), DELAY(-1,1220ns,2600ns),
+              DELAY(-1,1221ns,2601ns)
+             )
+         }
+    Q10  = {
+         CASE(
+              CHANGED(RESET,0) & TRN_HL, DELAY(-1,370ns,740ns),
+              CHANGED_HL(Q9_O,0) & (TRN_LH | TRN_HL), DELAY(-1,1340ns,2860ns),
+              DELAY(-1,1341ns,2861ns)
+             )
+         }
+    Q11  = {
+         CASE(
+              CHANGED(RESET,0) & TRN_HL, DELAY(-1,370ns,740ns),
+              CHANGED_HL(Q10_O,0) & (TRN_LH | TRN_HL), DELAY(-1,1460ns,3120ns),
+              DELAY(-1,1461ns,3121ns)
+             )
+         }
+    Q12  = {
+         CASE(
+              CHANGED(RESET,0) & TRN_HL, DELAY(-1,370ns,740ns),
+              CHANGED_HL(Q11_O,0) & (TRN_LH | TRN_HL), DELAY(-1,1580ns,3380ns),
+              DELAY(-1,1581ns,3381ns)
+             )
+         }
+    Q13  = {
+         CASE(
+              CHANGED(RESET,0) & TRN_HL, DELAY(-1,370ns,740ns),
+              CHANGED_HL(Q12_O,0) & (TRN_LH | TRN_HL), DELAY(-1,1700ns,3640ns),
+              DELAY(-1,1701ns,3641ns)
+             )
+         }
+    Q14  = {
+         CASE(
+              CHANGED(RESET,0) & TRN_HL, DELAY(-1,370ns,740ns),
+              CHANGED_HL(Q13_O,0) & (TRN_LH | TRN_HL), DELAY(-1,1820ns,3900ns),
+              DELAY(-1,1821ns,3901ns)
+             )
+          }

Ucnstr CONSTRAINT(2) VDD VSS
+          CLK RESET
+          IO_4000B
+
+      FREQ:
+         NODE = CLK
+         MAXFREQ = 2MEG
+      WIDTH:
+         NODE = CLK
+         MIN_HI = 140ns
+      WIDTH:
+         NODE = RESET
+         MIN_HI = 320ns
+      SETUP_HOLD:
+        CLOCK HL = CLK
+        DATA(1) = RESET
+        SETUPTIME_LO = 65ns

.ENDS CD4020B
*
*
*------------------------------------------------------------CD4021B-----

* CD4021B 8 Stage Static Shift Register
* National Semiconductor, CMOS Logic Databook, 1988, pages 5-75 to 5-79
* jat 8/30/95

.SUBCKT CD4021B
+ SERIN P1 P2 P3 P4 P5 P6 P7 P8 CLK P/S Q6 Q7 Q8
+ OPTIONAL:  VDD=$G_CD4000_VDD VSS=$G_CD4000_VSS
+ PARAMS:  MNTYMXDLY=0 IO_LEVEL=0

U1 LOGICEXP(10,17) VDD VSS
+ CLK P/S P1 P2 P3 P4 P5 P6 P7 P8
+ CLOCK PRESETBAR1 RESETBAR1 PRESETBAR2 RESETBAR2 PRESETBAR3 RESETBAR3
+ PRESETBAR4 RESETBAR4 PRESETBAR5 RESETBAR5 PRESETBAR6 RESETBAR6 
+ PRESETBAR7 RESETBAR7 PRESETBAR8 RESETBAR8 
+ D0_GATE IO_4000B MNTYMXDLY={MNTYMXDLY} IO_LEVEL={IO_LEVEL}
+ LOGIC:
+        CLOCK = {CLK | P/S}
+        PRESETBAR1 = {~(P/S & P1)}
+        RESETBAR1 = {~(P/S) | (P/S & P1)}
+        PRESETBAR2 = {~(P/S & P2)}
+        RESETBAR2 = {~(P/S) | (P/S & P2)}
+        PRESETBAR3 = {~(P/S & P3)}
+        RESETBAR3 = {~(P/S) | (P/S & P3)}
+        PRESETBAR4 = {~(P/S & P4)}
+        RESETBAR4 = {~(P/S) | (P/S & P4)}
+        PRESETBAR5 = {~(P/S & P5)}
+        RESETBAR5 = {~(P/S) | (P/S & P5)}