**********
* Copyright Intusoft 1992-1997
* All Rights Reserved
**********
**********
*SRC=COAX;COAXG;Interconnects;Generic;Coax
*SYM=COAXG
.SUBCKT COAXG 1   2   3    4 {C=??? ZO=??? LEN=??? ALPHA=???}
* Connections In+ In- Out+ Out-
* C     = {C}   CAPACITANCE IN F/FT
* ZO    = {ZO}    CHARACTERISTIC IMPEDANCE
* LEN   = {LEN}   LENGTH OF TRANSMISSION LINEN IN FT
* ALPHA = {ALPHA} ATTENUATION IN DB/100FT
O1 1 2 3 4 LOSSY
.MODEL LOSSY LTRA(R={((ALPHA*3.2808/100)/8.686)*2*ZO} 
+ G=0 L={ZO^2*C*3.2808} 
+ C={C*3.2808} LEN={LEN/3.2808})
.ENDS
**********
*SRC=RG9A;RG9A;Interconnects;Coax;
*SYM=COAX
.SUBCKT RG9A 1 2 3 4  {LEN=???}
* C     = 30.200P   CAPACITANCE IN F/FT
* ZO    = 51.000    CHARACTERISTIC IMPEDANCE
* LEN   = {LEN}     LENGTH OF TRANSMISSION LINE IN FT
* ALPHA = 6.1000    ATTENUATION IN DB/100FT @400MegHz
O1 1 2 3 4 LOSSY
.MODEL LOSSY LTRA(R=2.3501 G=0 L=257.71N C=99.080P LEN={(LEN/3.2808)})
.ENDS
**********
*SRC=RG9B;RG9B;Interconnects;Coax;
*SYM=COAX
.SUBCKT RG9B 1 2 3 4 {LEN=???}
* C     = 30.800P   CAPACITANCE IN F/FT
* ZO    = 50.000    CHARACTERISTIC IMPEDANCE
* LEN   = {LEN}     LENGTH OF TRANSMISSION LINE IN FT
* ALPHA = 6.1000    ATTENUATION IN DB/100FT @400MegHz
O1 1 2 3 4 LOSSY
.MODEL LOSSY LTRA(R=2.3040 G=0 L=252.62N C=101.05P LEN={(LEN/3.2808)})
.ENDS
**********
*SRC=RG10;RG10;Interconnects;Coax;
*SYM=COAX
.SUBCKT RG10 1 2 3 4 {LEN=???}
* C     = 29.600P   CAPACITANCE IN F/FT
* ZO    = 52.000    CHARACTERISTIC IMPEDANCE
* LEN   = {LEN}     LENGTH OF TRANSMISSION LINE IN FT
* ALPHA = 6.0000    ATTENUATION IN DB/100FT @400MegHz
O1 1 2 3 4 LOSSY
.MODEL LOSSY LTRA(R=2.3569 G=0 L=262.59N C=97.112P LEN={(LEN/3.2808)})
.ENDS
**********
*SRC=RG10A;RG10A;Interconnects;Coax;
*SYM=COAX
.SUBCKT RG10A 1 2 3 4 {LEN=???}
* C     = 29.600P   CAPACITANCE IN F/FT
* ZO    = 52.000    CHARACTERISTIC IMPEDANCE
* LEN   = {LEN}     LENGTH OF TRANSMISSION LINE IN FT
* ALPHA = 6.0000    ATTENUATION IN DB/100FT @ 400MegHz
O1 1 2 3 4 LOSSY
.MODEL LOSSY LTRA(R=2.3569 G=0 L=262.59N C=97.112P LEN={(LEN/3.2808)})
.ENDS
**********
*SRC=RG11;RG11;Interconnects;Coax;
*SYM=COAX
.SUBCKT RG11 1 2 3 4 {LEN=???}
* C     = 20.600P   CAPACITANCE IN F/FT
* ZO    = 75.000    CHARACTERISTIC IMPEDANCE
* LEN   = {LEN}     LENGTH OF TRANSMISSION LINE IN FT
* ALPHA = 5.7000    ATTENUATION IN DB/100FT @ 400MegHz
O1 1 2 3 4 LOSSY
.MODEL LOSSY LTRA(R=3.2294 G=0 L=380.16N C=67.584P LEN={(LEN/3.2808)})
.ENDS
**********
*SRC=RG11A;RG11A;Interconnects;Coax;
*SYM=COAX
.SUBCKT RG11A 1 2 3 4 {LEN=???}
* C     = 20.600P   CAPACITANCE IN F/FT
* ZO    = 75.000    CHARACTERISTIC IMPEDANCE
* LEN   = {LEN}     LENGTH OF TRANSMISSION LINE IN FT
* ALPHA = 5.2000    ATTENUATION IN DB/100FT @ 400MegHz
O1 1 2 3 4 LOSSY
.MODEL LOSSY LTRA(R=2.9461 G=0 L=380.16N C=67.584P LEN={(LEN/3.2808)})
.ENDS
**********
*SRC=RG12;RG12;Interconnects;Coax;
*SYM=COAX
.SUBCKT RG12 1 2 3 4 {LEN=???}
* C     = 20.600P   CAPACITANCE IN F/FT
* ZO    = 75.000    CHARACTERISTIC IMPEDANCE
* LEN   = {LEN}     LENGTH OF TRANSMISSION LINE IN FT
* ALPHA = 5.7000    ATTENUATION IN DB/100FT @ 400MegHz
O1 1 2 3 4 LOSSY
.MODEL LOSSY LTRA(R=3.2294 G=0 L=380.16N C=67.584P LEN={(LEN/3.2808)})
.ENDS
**********
*SRC=RG12A;RG12A;Interconnects;Coax;
*SYM=COAX
.SUBCKT RG12A 1 2 3 4 {LEN=???}
* C     = 20.600P   CAPACITANCE IN F/FT
* ZO    = 75.000    CHARACTERISTIC IMPEDANCE
* LEN   = {LEN}     LENGTH OF TRANSMISSION LINE IN FT
* ALPHA = 5.2000    ATTENUATION IN DB/100FT @ 400MegHz
O1 1 2 3 4 LOSSY
.MODEL LOSSY LTRA(R=2.9461 G=0 L=380.16N C=67.584P LEN={(LEN/3.2808)})
.ENDS
**********
*SRC=RG13;RG13;Interconnects;Coax;
*SYM=COAX
.SUBCKT RG13 1 2 3 4 {LEN=???}
* C     = 20.800P   CAPACITANCE IN F/FT
* ZO    = 74.000    CHARACTERISTIC IMPEDANCE
* LEN   = {LEN}     LENGTH OF TRANSMISSION LINE IN FT
* ALPHA = 5.7000    ATTENUATION IN DB/100FT @ 400MegHz
O1 1 2 3 4 LOSSY
.MODEL LOSSY LTRA(R=3.1864 G=0 L=373.69N C=68.241P LEN={(LEN/3.2808)})
.ENDS
**********
*SRC=RG13A;RG13A;Interconnects;Coax;
*SYM=COAX
.SUBCKT RG13A 1 2 3 4 {LEN=???}
* C     = 20.800P   CAPACITANCE IN F/FT
* ZO    = 74.000    CHARACTERISTIC IMPEDANCE
* LEN   = {LEN}     LENGTH OF TRANSMISSION LINE IN FT
* ALPHA = 5.7000    ATTENUATION IN DB/100FT @ 400MegHz
O1 1 2 3 4 LOSSY
.MODEL LOSSY LTRA(R=3.1864 G=0 L=373.69N C=68.241P LEN={(LEN/3.2808)})
.ENDS
**********
*SRC=RG14;RG14;Interconnects;Coax;
*SYM=COAX
.SUBCKT RG14 1 2 3 4 {LEN=???}
* C     = 29.600P   CAPACITANCE IN F/FT
* ZO    = 52.000    CHARACTERISTIC IMPEDANCE
* LEN   = {LEN}     LENGTH OF TRANSMISSION LINE IN FT
* ALPHA = 4.3000    ATTENUATION IN DB/100FT @ 400MegHz
O1 1 2 3 4 LOSSY
.MODEL LOSSY LTRA(R=1.6891 G=0 L=262.59N C=97.112P LEN={(LEN/3.2808)})
.ENDS
**********
*SRC=RG14A;RG14A;Interconnects;Coax;
*SYM=COAX
.SUBCKT RG14A 1 2 3 4 {LEN=???}
* C     = 29.600P   CAPACITANCE IN F/FT
* ZO    = 52.000    CHARACTERISTIC IMPEDANCE
* LEN   = {LEN}     LENGTH OF TRANSMISSION LINE IN FT
* ALPHA = 4.3000    ATTENUATION IN DB/100FT @ 400MegHz
O1 1 2 3 4 LOSSY
.MODEL LOSSY LTRA(R=1.6891 G=0 L=262.59N C=97.112P LEN={(LEN/3.2808)})
.ENDS
**********
*SRC=RG15;RG15;Interconnects;Coax;
*SYM=COAX
.SUBCKT RG15 1 2 3 4 {LEN=???}
* C     = 20.000P   CAPACITANCE IN F/FT
* ZO    = 76.000    CHARACTERISTIC IMPEDANCE
* LEN   = {LEN}     LENGTH OF TRANSMISSION LINE IN FT
* ALPHA = 4.5000    ATTENUATION IN DB/100FT @ 400MegHz
O1 1 2 3 4 LOSSY
.MODEL LOSSY LTRA(R=2.5835 G=0 L=379.00N C=65.616P LEN={(LEN/3.2808)})
.ENDS
**********
*SRC=RG16;RG16;Interconnects;Coax;
*SYM=COAX
.SUBCKT RG16 1 2 3 4 {LEN=???}
* C     = 29.600P   CAPACITANCE IN F/FT
* ZO    = 52.000    CHARACTERISTIC IMPEDANCE
* LEN   = {LEN}     LENGTH OF TRANSMISSION LINE IN FT
* ALPHA = 4.4000    ATTENUATION IN DB/100FT @ 400MegHz
O1 1 2 3 4 LOSSY
.MODEL LOSSY LTRA(R=1.7284 G=0 L=262.59N C=97.112P LEN={(LEN/3.2808)})
.ENDS
**********
*SRC=RG17;RG17;Interconnects;Coax;
*SYM=COAX
.SUBCKT RG17 1 2 3 4 {LEN=???}
* C     = 29.600P   CAPACITANCE IN F/FT
* ZO    = 52.000    CHARACTERISTIC IMPEDANCE
* LEN   = {LEN}     LENGTH OF TRANSMISSION LINE IN FT
* ALPHA = 2.8000    ATTENUATION IN DB/100FT @ 400MegHz
O1 1 2 3 4 LOSSY
.MODEL LOSSY LTRA(R=1.0999 G=0 L=262.59N C=97.112P LEN={(LEN/3.2808)})
.ENDS
**********
*SRC=RG17A;RG17A;Interconnects;Coax;
*SYM=COAX
.SUBCKT RG17A 1 2 3 4 {LEN=???}
* C     = 29.600P   CAPACITANCE IN F/FT
* ZO    = 52.000    CHARACTERISTIC IMPEDANCE
* LEN   = {LEN}     LENGTH OF TRANSMISSION LINE IN FT
* ALPHA = 2.8000    ATTENUATION IN DB/100FT @ 400MegHz
O1 1 2 3 4 LOSSY
.MODEL LOSSY LTRA(R=1.0999 G=0 L=262.59N C=97.112P LEN={(LEN/3.2808)})
.ENDS
**********
*SRC=RG18;RG18;Interconnects;Coax;
*SYM=COAX
.SUBCKT RG18 1 2 3 4 {LEN=???}
* C     = 29.600P   CAPACITANCE IN F/FT
* ZO    = 52.000    CHARACTERISTIC IMPEDANCE
* LEN   = {LEN}     LENGTH OF TRANSMISSION LINE IN FT
* ALPHA = 2.8000    ATTENUATION IN DB/100FT @ 400MegHz
O1 1 2 3 4 LOSSY
.MODEL LOSSY LTRA(R=1.0999 G=0 L=262.59N C=97.112P LEN={(LEN/3.2808)})
.ENDS
**********
*SRC=RG18A;RG18A;Interconnects;Coax;
*SYM=COAX
.SUBCKT RG18A 1 2 3 4 {LEN=???}
* C     = 29.600P   CAPACITANCE IN F/FT
* ZO    = 52.000    CHARACTERISTIC IMPEDANCE
* LEN   = {LEN}     LENGTH OF TRANSMISSION LINE IN FT
* ALPHA = 2.8000    ATTENUATION IN DB/100FT @ 400MegHz
O1 1 2 3 4 LOSSY
.MODEL LOSSY LTRA(R=1.0999 G=0 L=262.59N C=97.112P LEN={(LEN/3.2808)})
.ENDS
**********
*SRC=RG19;RG19;Interconnects;Coax;
*SYM=COAX
.SUBCKT RG19 1 2 3 4 {LEN=???}
* C     = 29.600P   CAPACITANCE IN F/FT
* ZO    = 52.000    CHARACTERISTIC IMPEDANCE
* LEN   = {LEN}     LENGTH OF TRANSMISSION LINE IN FT
* ALPHA = 2.3000    ATTENUATION IN DB/100FT @ 400MegHz
O1 1 2 3 4 LOSSY
.MODEL LOSSY LTRA(R=903.49M G=0 L=262.59N C=97.112P LEN={(LEN/3.2808)})
.ENDS
**********
*SRC=RG19A;RG19A;Interconnects;Coax;
*SYM=COAX
.SUBCKT RG19A 1 2 3 4 {LEN=???}
* C     = 29.600P   CAPACITANCE IN F/FT
* ZO    = 52.000    CHARACTERISTIC IMPEDANCE
* LEN   = {LEN}     LENGTH OF TRANSMISSION LINE IN FT
* ALPHA = 2.3000    ATTENUATION IN DB/100FT @ 400MegHz
O1 1 2 3 4 LOSSY
.MODEL LOSSY LTRA(R=903.49M G=0 L=262.59N C=97.112P LEN={(LEN/3.2808)})
.ENDS
**********
*SRC=RG20;RG20;Interconnects;Coax;
*SYM=COAX
.SUBCKT RG20 1 2 3 4 {LEN=???}
* C     = 29.600P   CAPACITANCE IN F/FT
* ZO    = 52.000    CHARACTERISTIC IMPEDANCE
* LEN   = {LEN}     LENGTH OF TRANSMISSION LINE IN FT
* ALPHA = 2.3000    ATTENUATION IN DB/100FT @ 400MegHz
O1 1 2 3 4 LOSSY
.MODEL LOSSY LTRA(R=903.49M G=0 L=262.59N C=97.112P LEN={(LEN/3.2808)})
.ENDS
**********
*SRC=RG20A;RG20A;Interconnects;Coax;
*SYM=COAX
.SUBCKT RG20A 1 2 3 4 {LEN=???}
* C     = 29.600P   CAPACITANCE IN F/FT
* ZO    = 52.000    CHARACTERISTIC IMPEDANCE
* LEN   = {LEN}     LENGTH OF TRANSMISSION LINE IN FT
* ALPHA = 2.3000    ATTENUATION IN DB/100FT @ 400MegHz
O1 1 2 3 4 LOSSY
.MODEL LOSSY LTRA(R=903.49M G=0 L=262.59N C=97.112P LEN={(LEN/3.2808)})
.ENDS
**********
*SRC=RG21;RG21;Interconnects;Coax;
*SYM=COAX
.SUBCKT RG21 1 2 3 4 {LEN=???}
* C     = 29.000P   CAPACITANCE IN F/FT
* ZO    = 53.000    CHARACTERISTIC IMPEDANCE
* LEN   = {LEN}     LENGTH OF TRANSMISSION LINE IN FT
* ALPHA = 33.000    ATTENUATION IN DB/100FT @ 400MegHz
O1 1 2 3 4 LOSSY
.MODEL LOSSY LTRA(R=13.212 G=0 L=267.26N C=95.143P LEN={(LEN/3.2808)})
.ENDS
**********
*SRC=RG21A;RG21A;Interconnects;Coax;
*SYM=COAX
.SUBCKT RG21A 1 2 3 4 {LEN=???}
* C     = 29.000P   CAPACITANCE IN F/FT
* ZO    = 53.000    CHARACTERISTIC IMPEDANCE
* LEN   = {LEN}     LENGTH OF TRANSMISSION LINE IN FT
* ALPHA = 33.000    ATTENUATION IN DB/100FT @ 400MegHz
O1 1 2 3 4 LOSSY
.MODEL LOSSY LTRA(R=13.212 G=0 L=267.26N C=95.143P LEN={(LEN/3.2808)})
.ENDS
**********
*SRC=RG25A;RG25A;Interconnects;Coax;
*SYM=COAX
.SUBCKT RG25A 1 2 3 4 {LEN=???}
* C     = 50.000P   CAPACITANCE IN F/FT
* ZO    = 48.000    CHARACTERISTIC IMPEDANCE
* LEN   = {LEN}     LENGTH OF TRANSMISSION LINE IN FT
* ALPHA = 700.00M   ATTENUATION IN DB/100FT @ 1MegHz
O1 1 2 3 4 LOSSY
.MODEL LOSSY LTRA(R=253.82M G=0 L=377.95N C=164.04P LEN={(LEN/3.2808)})
.ENDS
**********
*SRC=RG26A;RG26A;Interconnects;Coax;
*SYM=COAX
.SUBCKT RG26A 1 2 3 4 {LEN=???}
* C     = 50.000P   CAPACITANCE IN F/FT
* ZO    = 48.000    CHARACTERISTIC IMPEDANCE
* LEN   = {LEN}     LENGTH OF TRANSMISSION LINE IN FT
* ALPHA = 700.00M   ATTENUATION IN DB/100FT @ 1MegHz
O1 1 2 3 4 LOSSY
.MODEL LOSSY LTRA(R=253.82M G=0 L=377.95N C=164.04P LEN={(LEN/3.2808)})
.ENDS
**********
*SRC=RG27A;RG27A;Interconnects;Coax;
*SYM=COAX
.SUBCKT RG27A 1 2 3 4 {LEN=???}
* C     = 50.000P   CAPACITANCE IN F/FT
* ZO    = 48.000    CHARACTERISTIC IMPEDANCE
* LEN   = {LEN}     LENGTH OF TRANSMISSION LINE IN FT
* ALPHA = 700.00M   ATTENUATION IN DB/100FT @ 1MegHz
O1 1 2 3 4 LOSSY
.MODEL LOSSY LTRA(R=253.82M G=0 L=377.95N C=164.04P LEN={(LEN/3.2808)})
.ENDS
**********
*SRC=RG28B;RG28B;Interconnects;Coax;
*SYM=COAX
.SUBCKT RG28B 1 2 3 4 {LEN=???}
* C     = 50.000P   CAPACITANCE IN F/FT
* ZO    = 48.000    CHARACTERISTIC IMPEDANCE
* LEN   = {LEN}     LENGTH OF TRANSMISSION LINE IN FT
* ALPHA = 700.00M   ATTENUATION IN DB/100FT @ 1MegHz
O1 1 2 3 4 LOSSY
.MODEL LOSSY LTRA(R=253.82M G=0 L=377.95N C=164.04P LEN={(LEN/3.2808)})
.ENDS
**********
*SRC=RG29;RG29;Interconnects;Coax;
*SYM=COAX
.SUBCKT RG29 1 2 3 4 {LEN=???}
* C     = 28.800P   CAPACITANCE IN F/FT
* ZO    = 53.500    CHARACTERISTIC IMPEDANCE
* LEN   = {LEN}     LENGTH OF TRANSMISSION LINE IN FT
* ALPHA = 11.700    ATTENUATION IN DB/100FT @ 400MegHz
O1 1 2 3 4 LOSSY
.MODEL LOSSY LTRA(R=4.7286 G=0 L=270.45N C=94.487P LEN={(LEN/3.2808)})
.ENDS
**********
*SRC=RG34;RG34;Interconnects;Coax;
*SYM=COAX
.SUBCKT RG34 1 2 3 4 {LEN=???}
* C     = 21.700P   CAPACITANCE IN F/FT
* ZO    = 71.000    CHARACTERISTIC IMPEDANCE
* LEN   = {LEN}     LENGTH OF TRANSMISSION LINE IN FT
* ALPHA = 5.3000    ATTENUATION IN DB/100FT @ 400MegHz
O1 1 2 3 4 LOSSY
.MODEL LOSSY LTRA(R=2.8427 G=0 L=358.89N C=71.193P LEN={(LEN/3.2808)})
.ENDS
**********
*SRC=RG34A;RG34A;Interconnects;Coax;
*SYM=COAX
.SUBCKT RG34A 1 2 3 4 {LEN=???}
* C     = 20.600P   CAPACITANCE IN F/FT
* ZO    = 75.000    CHARACTERISTIC IMPEDANCE
* LEN   = {LEN}     LENGTH OF TRANSMISSION LINE IN FT
* ALPHA = 5.3000    ATTENUATION IN DB/100FT @ 400MegHz
O1 1 2 3 4 LOSSY
.MODEL LOSSY LTRA(R=3.0028 G=0 L=380.16N C=67.584P LEN={(LEN/3.2808)})
.ENDS
**********
*SRC=RG34B;RG34B;Interconnects;Coax;
*SYM=COAX
.SUBCKT RG34B 1 2 3 4 {LEN=???}
* C     = 20.600P   CAPACITANCE IN F/FT
* ZO    = 75.000    CHARACTERISTIC IMPEDANCE
* LEN   = {LEN}     LENGTH OF TRANSMISSION LINE IN FT
* ALPHA = 5.3000    ATTENUATION IN DB/100FT @ 400MegHz
O1 1 2 3 4 LOSSY
.MODEL LOSSY LTRA(R=3.0028 G=0 L=380.16N C=67.584P LEN={(LEN/3.2808)})
.ENDS
**********
*SRC=RG35;RG35;Interconnects;Coax;
*SYM=COAX
.SUBCKT RG35 1 2 3 4 {LEN=???}
* C     = 21.700P   CAPACITANCE IN F/FT
* ZO    = 71.000    CHARACTERISTIC IMPEDANCE
* LEN   = {LEN}     LENGTH OF TRANSMISSION LINE IN FT
* ALPHA = 2.8000    ATTENUATION IN DB/100FT @ 400MegHz
O1 1 2 3 4 LOSSY
.MODEL LOSSY LTRA(R=1.5018 G=0 L=358.89N C=71.193P LEN={(LEN/3.2808)})
.ENDS
**********
*SRC=RG35A;RG35A;Interconnects;Coax;
*SYM=COAX
.SUBCKT RG35A 1 2 3 4 {LEN=???}
* C     = 20.600P   CAPACITANCE IN F/FT
* ZO    = 75.000    CHARACTERISTIC IMPEDANCE
* LEN   = {LEN}     LENGTH OF TRANSMISSION LINE IN FT
* ALPHA = 2.8000    ATTENUATION IN DB/100FT @ 400MegHz
O1 1 2 3 4 LOSSY
.MODEL LOSSY LTRA(R=1.5864 G=0 L=380.16N C=67.584P LEN={(LEN/3.2808)})
.ENDS
**********
*SRC=RG35B;RG35B;Interconnects;Coax;
*SYM=COAX
.SUBCKT RG35B 1 2 3 4 {LEN=???}
* C     = 20.600P   CAPACITANCE IN F/FT
* ZO    = 75.000    CHARACTERISTIC IMPEDANCE
* LEN   = {LEN}     LENGTH OF TRANSMISSION LINE IN FT
* ALPHA = 2.8000    ATTENUATION IN DB/100FT @ 400MegHz
O1 1 2 3 4 LOSSY
.MODEL LOSSY LTRA(R=1.5864 G=0 L=380.16N C=67.584P LEN={(LEN/3.2808)})
.ENDS
**********
*SRC=RG36;RG36;Interconnects;Coax;
*SYM=COAX
.SUBCKT RG36 1 2 3 4 {LEN=???}
* C     = 22.300P   CAPACITANCE IN F/FT
* ZO    = 69.000    CHARACTERISTIC IMPEDANCE
* LEN   = {LEN}     LENGTH OF TRANSMISSION LINE IN FT
* ALPHA = 2.1000    ATTENUATION IN DB/100FT @ 400MegHz
O1 1 2 3 4 LOSSY
.MODEL LOSSY LTRA(R=1.0946 G=0 L=348.32N C=73.162P LEN={(LEN/3.2808)})
.ENDS
**********
*SRC=RG37;RG37;Interconnects;Coax;
*SYM=COAX
.SUBCKT RG37 1 2 3 4 {LEN=???}
* C     = 38.000P   CAPACITANCE IN F/FT
* ZO    = 52.500    CHARACTERISTIC IMPEDANCE
* LEN   = {LEN}     LENGTH OF TRANSMISSION LINE IN FT
* ALPHA = 600.00M   ATTENUATION IN DB/100FT @ 1MegHz
O1 1 2 3 4 LOSSY
.MODEL LOSSY LTRA(R=237.96M G=0 L=343.62N C=124.67P LEN={(LEN/3.2808)})
.ENDS
**********
*SRC=RG38;RG38;Interconnects;Coax;
*SYM=COAX
.SUBCKT RG38 1 2 3 4 {LEN=???}
* C     = 38.000P   CAPACITANCE IN F/FT
* ZO    = 52.500    CHARACTERISTIC IMPEDANCE
* LEN   = {LEN}     LENGTH OF TRANSMISSION LINE IN FT
* ALPHA = 600.00M   ATTENUATION IN DB/100FT @ 1MegHz
O1 1 2 3 4 LOSSY
.MODEL LOSSY LTRA(R=237.96M G=0 L=343.62N C=124.67P LEN={(LEN/3.2808)})
.ENDS
**********
*SRC=RG39;RG39;Interconnects;Coax;
*SYM=COAX
.SUBCKT RG39 1 2 3 4 {LEN=???}
* C     = 28.600P   CAPACITANCE IN F/FT
* ZO    = 72.500    CHARACTERISTIC IMPEDANCE
* LEN   = {LEN}     LENGTH OF TRANSMISSION LINE IN FT
* ALPHA = 600.00M   ATTENUATION IN DB/100FT @ 1MegHz
O1 1 2 3 4 LOSSY
.MODEL LOSSY LTRA(R=328.61M G=0 L=493.20N C=93.831P LEN={(LEN/3.2808)})
.ENDS
**********
*SRC=RG40;RG40;Interconnects;Coax;
*SYM=COAX
.SUBCKT RG40 1 2 3 4 {LEN=???}
* C     = 28.000P   CAPACITANCE IN F/FT
* ZO    = 72.500    CHARACTERISTIC IMPEDANCE
* LEN   = {LEN}     LENGTH OF TRANSMISSION LINE IN FT
* ALPHA = 600.00M   ATTENUATION IN DB/100FT @ 1MegHz
O1 1 2 3 4 LOSSY
.MODEL LOSSY LTRA(R=328.61M G=0 L=482.85N C=91.862P LEN={(LEN/3.2808)})
.ENDS
**********
*SRC=RG41;RG41;Interconnects;Coax;
*SYM=COAX
.SUBCKT RG41 1 2 3 4 {LEN=???}
* C     = 27.600P   CAPACITANCE IN F/FT
* ZO    = 67.500    CHARACTERISTIC IMPEDANCE
* LEN   = {LEN}     LENGTH OF TRANSMISSION LINE IN FT
* ALPHA = 500.00M   ATTENUATION IN DB/100FT @ 1MHz
O1 1 2 3 4 LOSSY
.MODEL LOSSY LTRA(R=254.96M G=0 L=412.57N C=90.550P LEN={(LEN/3.2808)})
.ENDS
**********
*SRC=RG42;RG42;Interconnects;Coax;
*SYM=COAX
.SUBCKT RG42 1 2 3 4 {LEN=???}
* C     = 19.700P   CAPACITANCE IN F/FT
* ZO    = 78.000    CHARACTERISTIC IMPEDANCE
* LEN   = {LEN}     LENGTH OF TRANSMISSION LINE IN FT
* ALPHA = 37.000    ATTENUATION IN DB/100FT @ 400MHz
O1 1 2 3 4 LOSSY
.MODEL LOSSY LTRA(R=21.801 G=0 L=393.22N C=64.632P LEN={(LEN/3.2808)})
.ENDS
**********
*SRC=RG54;RG54;Interconnects;Coax;
*SYM=COAX
.SUBCKT RG54 1 2 3 4 {LEN=???}
* C     = 26.500P   CAPACITANCE IN F/FT
* ZO    = 58.000    CHARACTERISTIC IMPEDANCE
* LEN   = {LEN}     LENGTH OF TRANSMISSION LINE IN FT
* ALPHA = 6.5000    ATTENUATION IN DB/100FT @ 400MHz
O1 1 2 3 4 LOSSY
.MODEL LOSSY LTRA(R=2.8479 G=0 L=292.47N C=86.941P LEN={(LEN/3.2808)})
.ENDS
**********
*SRC=RG54A;RG54A;Interconnects;Coax;
*SYM=COAX
.SUBCKT RG54A 1 2 3 4 {LEN=???}
* C     = 26.500P   CAPACITANCE IN F/FT
* ZO    = 58.000    CHARACTERISTIC IMPEDANCE
* LEN   = {LEN}     LENGTH OF TRANSMISSION LINE IN FT
* ALPHA = 7.5000    ATTENUATION IN DB/100FT @ 400MHz
O1 1 2 3 4 LOSSY
.MODEL LOSSY LTRA(R=3.2861 G=0 L=292.47N C=86.941P LEN={(LEN/3.2808)})
.ENDS
**********
*SRC=RG55;RG55;Interconnects;Coax;
*SYM=COAX
.SUBCKT RG55 1 2 3 4 {LEN=???}
* C     = 28.800P   CAPACITANCE IN F/FT
* ZO    = 53.500    CHARACTERISTIC IMPEDANCE
* LEN   = {LEN}     LENGTH OF TRANSMISSION LINE IN FT
* ALPHA = 11.700    ATTENUATION IN DB/100FT @ 400MHz
O1 1 2 3 4 LOSSY
.MODEL LOSSY LTRA(R=4.7286 G=0 L=270.45N C=94.487P LEN={(LEN/3.2808)})
.ENDS
**********
*SRC=RG55A;RG55A;Interconnects;Coax;
*SYM=COAX
.SUBCKT RG55A 1 2 3 4 {LEN=???}
* C     = 30.800P   CAPACITANCE IN F/FT
* ZO    = 50.000    CHARACTERISTIC IMPEDANCE
* LEN   = {LEN}     LENGTH OF TRANSMISSION LINE IN FT
* ALPHA = 11.700    ATTENUATION IN DB/100FT @ 400MHz
O1 1 2 3 4 LOSSY
.MODEL LOSSY LTRA(R=4.4192 G=0 L=252.62N C=101.05P LEN={(LEN/3.2808)})
.ENDS
**********
*SRC=RG55B;RG55B;Interconnects;Coax;
*SYM=COAX
.SUBCKT RG55B 1 2 3 4 {LEN=???}
* C     = 28.800P   CAPACITANCE IN F/FT
* ZO    = 53.500    CHARACTERISTIC IMPEDANCE
* LEN   = {LEN}     LENGTH OF TRANSMISSION LINE IN FT
* ALPHA = 11.700    ATTENUATION IN DB/100FT @ 400MHz
O1 1 2 3 4 LOSSY
.MODEL LOSSY LTRA(R=4.7286 G=0 L=270.45N C=94.487P LEN={(LEN/3.2808)})
.ENDS
**********
*SRC=RG58;RG58;Interconnects;Coax;
*SYM=COAX
.SUBCKT RG58 1 2 3 4 {LEN=???}
* C     = 28.800P   CAPACITANCE IN F/FT
* ZO    = 53.500    CHARACTERISTIC IMPEDANCE
* LEN   = {LEN}     LENGTH OF TRANSMISSION LINE IN FT
* ALPHA = 11.700    ATTENUATION IN DB/100FT @ 400MHz
O1 1 2 3 4 LOSSY
.MODEL LOSSY LTRA(R=4.7286 G=0 L=270.45N C=94.487P LEN={(LEN/3.2808)})
.ENDS
**********
*SRC=RG58A;RG58A;Interconnects;Coax;
*SYM=COAX
.SUBCKT RG58A 1 2 3 4 {LEN=???}
* C     = 29.600P   CAPACITANCE IN F/FT
* ZO    = 52.000    CHARACTERISTIC IMPEDANCE
* LEN   = {LEN}     LENGTH OF TRANSMISSION LINE IN FT
* ALPHA = 13.200    ATTENUATION IN DB/100FT @ 400MHz
O1 1 2 3 4 LOSSY
.MODEL LOSSY LTRA(R=5.1852 G=0 L=262.59N C=97.112P LEN={(LEN/3.2808)})
.ENDS
**********
*SRC=RG58B;RG58B;Interconnects;Coax;
*SYM=COAX
.SUBCKT RG58B 1 2 3 4 {LEN=???}
* C     = 28.800P   CAPACITANCE IN F/FT
* ZO    = 53.500    CHARACTERISTIC IMPEDANCE
* LEN   = {LEN}     LENGTH OF TRANSMISSION LINE IN FT
* ALPHA = 14.000    ATTENUATION IN DB/100FT @ 400MHz
O1 1 2 3 4 LOSSY
.MODEL LOSSY LTRA(R=5.6581 G=0 L=270.45N C=94.487P LEN={(LEN/3.2808)})
.ENDS
**********
*SRC=RG58C;RG58C;Interconnects;Coax;
*SYM=COAX
.SUBCKT RG58C 1 2 3 4 {LEN=???}
* C     = 30.800P   CAPACITANCE IN F/FT
* ZO    = 50.000    CHARACTERISTIC IMPEDANCE
* LEN   = {LEN}     LENGTH OF TRANSMISSION LINE IN FT
* ALPHA = 14.000    ATTENUATION IN DB/100FT @ 400MegHz
O1 1 2 3 4 LOSSY
.MODEL LOSSY LTRA(R=5.2880 G=0 L=252.62N C=101.05P LEN={(LEN/3.2808)})
.ENDS
**********
*SRC=RG59;RG59;Interconnects;Coax;
*SYM=COAX
.SUBCKT RG59 1 2 3 4 {LEN=???}
* C     = 21.100P   CAPACITANCE IN F/FT
* ZO    = 73.000    CHARACTERISTIC IMPEDANCE
* LEN   = {LEN}     LENGTH OF TRANSMISSION LINE IN FT
* ALPHA = 10.500    ATTENUATION IN DB/100FT @ 400MegHz
O1 1 2 3 4 LOSSY
.MODEL LOSSY LTRA(R=5.7903 G=0 L=368.90N C=69.225P LEN={(LEN/3.2808)})
.ENDS
**********
*SRC=RG59A;RG59A;Interconnects;Coax;
*SYM=COAX
.SUBCKT RG59A 1 2 3 4 {LEN=???}
* C     = 21.100P   CAPACITANCE IN F/FT
* ZO    = 73.000    CHARACTERISTIC IMPEDANCE
* LEN   = {LEN}     LENGTH OF TRANSMISSION LINE IN FT
* ALPHA = 10.500    ATTENUATION IN DB/100FT @ 400MegHz
O1 1 2 3 4 LOSSY
.MODEL LOSSY LTRA(R=5.7903 G=0 L=368.90N C=69.225P LEN={(LEN/3.2808)})
.ENDS
**********
*SRC=RG59B;RG59B;Interconnects;Coax;
*SYM=COAX
.SUBCKT RG59B 1 2 3 4 {LEN=???}
* C     = 20.600P   CAPACITANCE IN F/FT
* ZO    = 75.000     CHARACTERISTIC IMPEDANCE
* LEN   = {LEN}     LENGTH OF TRANSMISSION LINE IN FT
* ALPHA = 9.0000  ATTENUATION IN DB/100FT @ 400MegHz
O1 1 2 3 4 LOSSY
.MODEL LOSSY LTRA(R=5.0991 G=0 L=380.16N C=67.584P LEN={(LEN/3.2808)})
.ENDS
**********
*SRC=RG62;RG62;Interconnects;Coax;
*SYM=COAX
.SUBCKT RG62 1 2 3 4 {LEN=???}
* C     = 13.500P   CAPACITANCE IN F/FT
* ZO    = 93.000     CHARACTERISTIC IMPEDANCE
* LEN   = {LEN}     LENGTH OF TRANSMISSION LINE IN FT
* ALPHA = 8.0000  ATTENUATION IN DB/100FT @ 400MegHz
O1 1 2 3 4 LOSSY
.MODEL LOSSY LTRA(R=5.6203 G=0 L=383.07N C=44.291P LEN={(LEN/3.2808)})
.ENDS
**********
*SRC=RG62A;RG62A;Interconnects;Coax;
*SYM=COAX
.SUBCKT RG62A 1 2 3 4 {LEN=???}
* C     = 13.500P   CAPACITANCE IN F/FT
* ZO    = 93.000     CHARACTERISTIC IMPEDANCE
* LEN   = {LEN}     LENGTH OF TRANSMISSION LINE IN FT
* ALPHA = 8.0000  ATTENUATION IN DB/100FT @ 400MegHz
O1 1 2 3 4 LOSSY
.MODEL LOSSY LTRA(R=5.6203 G=0 L=383.07N C=44.291P LEN={(LEN/3.2808)})
.ENDS
**********
*SRC=RG62B;RG62B;Interconnects;Coax;
*SYM=COAX
.SUBCKT RG62B 1 2 3 4 {LEN=???}
* C     = 13.500P   CAPACITANCE IN F/FT
* ZO    = 93.000     CHARACTERISTIC IMPEDANCE
* LEN   = {LEN}     LENGTH OF TRANSMISSION LINE IN FT
* ALPHA = 8.0000  ATTENUATION IN DB/100FT @ 400MegHz
O1 1 2 3 4 LOSSY
.MODEL LOSSY LTRA(R=5.6203 G=0 L=383.07N C=44.291P LEN={(LEN/3.2808)})
.ENDS
**********
*SRC=RG63;RG63;Interconnects;Coax;
*SYM=COAX
.SUBCKT RG63 1 2 3 4 {LEN=???}
* C     = 10.0000P   CAPACITANCE IN F/FT
* ZO    = 125.00     CHARACTERISTIC IMPEDANCE
* LEN   = {LEN}     LENGTH OF TRANSMISSION LINE IN FT
* ALPHA = 5.5000  ATTENUATION IN DB/100FT @ 400MegHz
O1 1 2 3 4 LOSSY
.MODEL LOSSY LTRA(R=5.1935 G=0 L=512.63N C=32.808P LEN={(LEN/3.2808)})
.ENDS
**********
*SRC=RG63A;RG63A;Interconnects;Coax;
*SYM=COAX
.SUBCKT RG63A 1 2 3 4 {LEN=???}
* C     = 10.0000P   CAPACITANCE IN F/FT
* ZO    = 125.00     CHARACTERISTIC IMPEDANCE
* LEN   = {LEN}     LENGTH OF TRANSMISSION LINE IN FT
* ALPHA = 5.5000  ATTENUATION IN DB/100FT @ 400MegHz
O1 1 2 3 4 LOSSY
.MODEL LOSSY LTRA(R=5.1935 G=0 L=512.63N C=32.808P LEN={(LEN/3.2808)})
.ENDS
**********
*SRC=RG63B;RG63B;Interconnects;Coax;
*SYM=COAX
.SUBCKT RG63B 1 2 3 4 {LEN=???}
* C     = 10.0000P   CAPACITANCE IN F/FT
* ZO    = 125.00     CHARACTERISTIC IMPEDANCE
* LEN   = {LEN}     LENGTH OF TRANSMISSION LINE IN FT
* ALPHA = 5.5000  ATTENUATION IN DB/100FT @ 400MegHz
O1 1 2 3 4 LOSSY
.MODEL LOSSY LTRA(R=5.1935 G=0 L=512.63N C=32.808P LEN={(LEN/3.2808)})
.ENDS
**********
*SRC=RG64;RG64;Interconnects;Coax;
*SYM=COAX
.SUBCKT RG64 1 2 3 4 {LEN=???}
* C     = 60.000P   CAPACITANCE IN F/FT
* ZO    = 48.000     CHARACTERISTIC IMPEDANCE
* LEN   = {LEN}     LENGTH OF TRANSMISSION LINE IN FT
* ALPHA = 700.00M ATTENUATION IN DB/100FT @ 1MHz
O1 1 2 3 4 LOSSY
.MODEL LOSSY LTRA(R=253.82M G=0 L=453.54N C=196.85P LEN={(LEN/3.2808)})
.ENDS
**********
*SRC=RG64A;RG64A;Interconnects;Coax;
*SYM=COAX
.SUBCKT RG64A 1 2 3 4 {LEN=???}
* C     = 50.000P   CAPACITANCE IN F/FT
* ZO    = 48.000     CHARACTERISTIC IMPEDANCE
* LEN   = {LEN}     LENGTH OF TRANSMISSION LINE IN FT
* ALPHA = 700.00M ATTENUATION IN DB/100FT @ 1MHz
O1 1 2 3 4 LOSSY
.MODEL LOSSY LTRA(R=253.82M G=0 L=377.95N C=164.04P LEN={(LEN/3.2808)})
.ENDS
**********
*SRC=RG65;RG65;Interconnects;Coax;
*SYM=COAX
.SUBCKT RG65 1 2 3 4 {LEN=???}
* C     = 44.000P   CAPACITANCE IN F/FT
* ZO    = 950.00     CHARACTERISTIC IMPEDANCE
* LEN   = {LEN}     LENGTH OF TRANSMISSION LINE IN FT
* ALPHA = 16.000  ATTENUATION IN DB/100FT @ 5MHz
O1 1 2 3 4 LOSSY
.MODEL LOSSY LTRA(R=114.82 G=0 L=130.28U C=144.36P LEN={(LEN/3.2808)})
.ENDS
**********
*SRC=RG65A;RG65A;Interconnects;Coax;
*SYM=COAX
.SUBCKT RG65A 1 2 3 4 {LEN=???}
* C     = 44.000P   CAPACITANCE IN F/FT
* ZO    = 950.00     CHARACTERISTIC IMPEDANCE
* LEN   = {LEN}     LENGTH OF TRANSMISSION LINE IN FT
* ALPHA = 16.000  ATTENUATION IN DB/100FT @ 5MHz
O1 1 2 3 4 LOSSY
.MODEL LOSSY LTRA(R=114.82 G=0 L=130.28U C=144.36P LEN={(LEN/3.2808)})
.ENDS
**********
*SRC=RG71;RG71;Interconnects;Coax;
*SYM=COAX
.SUBCKT RG71 1 2 3 4 {LEN=???}
* C     = 13.500P   CAPACITANCE IN F/FT
* ZO    = 93.000     CHARACTERISTIC IMPEDANCE
* LEN   = {LEN}     LENGTH OF TRANSMISSION LINE IN FT
* ALPHA = 8.0000  ATTENUATION IN DB/100FT @ 400MHz
O1 1 2 3 4 LOSSY
.MODEL LOSSY LTRA(R=5.6203 G=0 L=383.07N C=44.291P LEN={(LEN/3.2808)})
.ENDS
**********
*SRC=RG71A;RG71A;Interconnects;Coax;
*SYM=COAX
.SUBCKT RG71A 1 2 3 4 {LEN=???}
* C     = 13.500P   CAPACITANCE IN F/FT
* ZO    = 93.000     CHARACTERISTIC IMPEDANCE
* LEN   = {LEN}     LENGTH OF TRANSMISSION LINE IN FT
* ALPHA = 8.0000  ATTENUATION IN DB/100FT @ 400MHz
O1 1 2 3 4 LOSSY
.MODEL LOSSY LTRA(R=5.6203 G=0 L=383.07N C=44.291P LEN={(LEN/3.2808)})
.ENDS
**********
*SRC=RG71B;RG71B;Interconnects;Coax;
*SYM=COAX
.SUBCKT RG71B 1 2 3 4 {LEN=???}
* C     = 13.500P   CAPACITANCE IN F/FT
* ZO    = 93.000     CHARACTERISTIC IMPEDANCE
* LEN   = {LEN}     LENGTH OF TRANSMISSION LINE IN FT
* ALPHA = 8.0000  ATTENUATION IN DB/100FT @ 400MHz
O1 1 2 3 4 LOSSY
.MODEL LOSSY LTRA(R=5.6203 G=0 L=383.07N C=44.291P LEN={(LEN/3.2808)})
.ENDS
**********
*SRC=RG73;RG73;Interconnects;Coax;
*SYM=COAX
.SUBCKT RG73 1 2 3 4 {LEN=???}
* C     = 61.600P   CAPACITANCE IN F/FT
* ZO    = 25.000     CHARACTERISTIC IMPEDANCE
* LEN   = {LEN}     LENGTH OF TRANSMISSION LINE IN FT
* ALPHA = 24.000  ATTENUATION IN DB/100FT @ 400MHz
O1 1 2 3 4 LOSSY
.MODEL LOSSY LTRA(R=4.5325 G=0 L=126.31N C=202.10P LEN={(LEN/3.2808)})
.ENDS
**********
*SRC=RG74;RG74;Interconnects;Coax;
*SYM=COAX
.SUBCKT RG74 1 2 3 4 {LEN=???}
* C     = 29.600P   CAPACITANCE IN F/FT
* ZO    = 52.000     CHARACTERISTIC IMPEDANCE
* LEN   = {LEN}     LENGTH OF TRANSMISSION LINE IN FT
* ALPHA = 4.3000  ATTENUATION IN DB/100FT @ 400MHz
O1 1 2 3 4 LOSSY
.MODEL LOSSY LTRA(R=1.6891 G=0 L=262.59N C=97.112P LEN={(LEN/3.2808)})
.ENDS
**********
*SRC=RG74A;RG74A;Interconnects;Coax;
*SYM=COAX
.SUBCKT RG74A 1 2 3 4 {LEN=???}
* C     = 29.600P   CAPACITANCE IN F/FT
* ZO    = 52.000     CHARACTERISTIC IMPEDANCE
* LEN   = {LEN}     LENGTH OF TRANSMISSION LINE IN FT
* ALPHA = 4.3000  ATTENUATION IN DB/100FT @ 400MHz
O1 1 2 3 4 LOSSY
.MODEL LOSSY LTRA(R=1.6891 G=0 L=262.59N C=97.112P LEN={(LEN/3.2808)})
.ENDS
**********
*SRC=RG77A;RG77A;Interconnects;Coax;
*SYM=COAX
.SUBCKT RG77A 1 2 3 4 {LEN=???}
* C     = 50.000P   CAPACITANCE IN F/FT
* ZO    = 48.000     CHARACTERISTIC IMPEDANCE
* LEN   = {LEN}     LENGTH OF TRANSMISSION LINE IN FT
* ALPHA = 700.00M ATTENUATION IN DB/100FT @ 1MHz
O1 1 2 3 4 LOSSY
.MODEL LOSSY LTRA(R=253.82M G=0 L=377.95N C=164.04P LEN={(LEN/3.2808)})
.ENDS
**********
*SRC=RG78A;RG78A;Interconnects;Coax;
*SYM=COAX
.SUBCKT RG78A 1 2 3 4 {LEN=???}
* C     = 50.000P   CAPACITANCE IN F/FT
* ZO    = 48.000     CHARACTERISTIC IMPEDANCE
* LEN   = {LEN}     LENGTH OF TRANSMISSION LINE IN FT
* ALPHA = 700.00M ATTENUATION IN DB/100FT @ 1MHz
O1 1 2 3 4 LOSSY
.MODEL LOSSY LTRA(R=253.82M G=0 L=377.95N C=164.04P LEN={(LEN/3.2808)})
.ENDS
**********
*SRC=RG79;RG79;Interconnects;Coax;
*SYM=COAX
.SUBCKT RG79 1 2 3 4 {LEN=???}
* C     = 10.0000P   CAPACITANCE IN F/FT
* ZO    = 125.00     CHARACTERISTIC IMPEDANCE
* LEN   = {LEN}     LENGTH OF TRANSMISSION LINE IN FT
* ALPHA = 5.5000  ATTENUATION IN DB/100FT @ 400MHz
O1 1 2 3 4 LOSSY
.MODEL LOSSY LTRA(R=5.1935 G=0 L=512.63N C=32.808P LEN={(LEN/3.2808)})
.ENDS
**********
*SRC=RG79A;RG79A;Interconnects;Coax;
*SYM=COAX
.SUBCKT RG79A 1 2 3 4 {LEN=???}
* C     = 10.0000P   CAPACITANCE IN F/FT
* ZO    = 125.00     CHARACTERISTIC IMPEDANCE
* LEN   = {LEN}     LENGTH OF TRANSMISSION LINE IN FT
* ALPHA = 5.5000  ATTENUATION IN DB/100FT @ 400MHz
O1 1 2 3 4 LOSSY
.MODEL LOSSY LTRA(R=5.1935 G=0 L=512.63N C=32.808P LEN={(LEN/3.2808)})
.ENDS
**********
*SRC=RG79B;RG79B;Interconnects;Coax;
*SYM=COAX
.SUBCKT RG79B 1 2 3 4 {LEN=???}
* C     = 10.0000P   CAPACITANCE IN F/FT
* ZO    = 125.00     CHARACTERISTIC IMPEDANCE
* LEN   = {LEN}     LENGTH OF TRANSMISSION LINE IN FT
* ALPHA = 5.5000  ATTENUATION IN DB/100FT @ 400MHz
O1 1 2 3 4 LOSSY
.MODEL LOSSY LTRA(R=5.1935 G=0 L=512.63N C=32.808P LEN={(LEN/3.2808)})
.ENDS
**********
*SRC=RG81;RG81;Interconnects;Coax;
*SYM=COAX
.SUBCKT RG81 1 2 3 4 {LEN=???}
* C     = 37.000P   CAPACITANCE IN F/FT
* ZO    = 50.000     CHARACTERISTIC IMPEDANCE
* LEN   = {LEN}     LENGTH OF TRANSMISSION LINE IN FT
* ALPHA = 5.5000  ATTENUATION IN DB/100FT @ 400MHz
O1 1 2 3 4 LOSSY
.MODEL LOSSY LTRA(R=2.0774 G=0 L=303.47N C=121.39P LEN={(LEN/3.2808)})
.ENDS
**********
*SRC=RG82;RG82;Interconnects;Coax;
*SYM=COAX
.SUBCKT RG82 1 2 3 4 {LEN=???}
* C     = 36.000P   CAPACITANCE IN F/FT
* ZO    = 50.000     CHARACTERISTIC IMPEDANCE
* LEN   = {LEN}     LENGTH OF TRANSMISSION LINE IN FT
* ALPHA = 3.5000  ATTENUATION IN DB/100FT @ 400MHz
O1 1 2 3 4 LOSSY
.MODEL LOSSY LTRA(R=1.3220 G=0 L=295.27N C=118.11P LEN={(LEN/3.2808)})
.ENDS
**********
*SRC=RG83;RG83;Interconnects;Coax;
*SYM=COAX
.SUBCKT RG83 1 2 3 4 {LEN=???}
* C     = 44.000P   CAPACITANCE IN F/FT
* ZO    = 35.000     CHARACTERISTIC IMPEDANCE
* LEN   = {LEN}     LENGTH OF TRANSMISSION LINE IN FT
* ALPHA = 9.0000  ATTENUATION IN DB/100FT @ 400MHz
O1 1 2 3 4 LOSSY
.MODEL LOSSY LTRA(R=2.3796 G=0 L=176.84N C=144.36P LEN={(LEN/3.2808)})
.ENDS
**********
*SRC=RG84A;RG84A;Interconnects;Coax;
*SYM=COAX
.SUBCKT RG84A 1 2 3 4 {LEN=???}
* C     = 20.600P   CAPACITANCE IN F/FT
* ZO    = 75.000     CHARACTERISTIC IMPEDANCE