**********
* Copyright Intusoft 1996-1997
* All Rights Reserved
**********
***********
* Dielectric and permeability effects are not directly accounted for in this model.
* R1 value = the inductor dc resistance.
* B1 forms an equivalent circuit for the ac inductor resistance. 
*  The If-Then-Else expressions defines a frequency dependent voltage 
*  which simulates the frequency dependent resistance
*  due to the conductor skin effect. 
* L1 value = the low frequency inductance. This is measured at a low frequency 
*  where the distributed winding capacitance is negligible.
* C1 value = the distributed winding capacitance.
**********
*SRC=INDUCC;INDCC;Inductors;Nonideal;Coilcraft Model
*SYM=IND
*HELP issyntax.hlp "Coilcraft Inductor Notes - COILCIND.LIB"
.SUBCKT INDCC 1 4 {L=??? C=??? RDC=??? K=???}
*Coilcraft Inductor Model with skin effect
R1 1 2 {RDC}
B1 2 3 V = TIME > 0 ? (({K/L})/(SQRT(PI*TIME)))*(V(3)) : 
+          FREQ+1.0E-20 > 0 ? {K}*SQRT(FREQ/(2.0*PI))*I(L1)
L1 3 4 {L}
C1 2 4 {C}
.ENDS
********
*SRC=0603HS1N8;0603HS1N8;Inductors;Nonideal;Coilcraft Model
*SYM=IND
*HELP issyntax.hlp "Coilcraft Inductor Notes - COILCIND.LIB"
.SUBCKT 0603HS1N8 1 4
*COILCRAFT INDUCTOR MODEL WITH SKIN EFFECT
R1 1 2 4.5000M
B1 2 3 V = TIME > 0 ? ((3.8125K)/(SQRT(PI*TIME)))*(V(3)) : 
+          FREQ+1.0E-20 > 0 ? 6.1000U*SQRT(FREQ/(2.0*PI))*I(L1)
L1 3 4 1.6000N
C1 2 4 239.00F
.ENDS
*******
*SRC=0603HS3N9;0603HS3N9;Inductors;Nonideal;Coilcraft Model
*SYM=IND
*HELP issyntax.hlp "Coilcraft Inductor Notes - COILCIND.LIB"
.SUBCKT 0603HS3N9 1 4
*COILCRAFT INDUCTOR MODEL WITH SKIN EFFECT
R1 1 2 80.000M
B1 2 3 V = TIME > 0 ? ((2.6389K)/(SQRT(PI*TIME)))*(V(3)) : 
+          FREQ+1.0E-20 > 0 ? 9.5000U*SQRT(FREQ/(2.0*PI))*I(L1)
L1 3 4 3.6000N
C1 2 4 80.000F
.ENDS
******
*SRC=0603HS6N8;0603HS6N8;Inductors;Nonideal;Coilcraft Model
*SYM=IND
*HELP issyntax.hlp "Coilcraft Inductor Notes - COILCIND.LIB"
.SUBCKT 0603HS6N8 1 4
*COILCRAFT INDUCTOR MODEL WITH SKIN EFFECT
R1 1 2 111.00M
B1 2 3 V = TIME > 0 ? ((2.2206K)/(SQRT(PI*TIME)))*(V(3)) : 
+          FREQ+1.0E-20 > 0 ? 15.100U*SQRT(FREQ/(2.0*PI))*I(L1)
L1 3 4 6.8000N
C1 2 4 111.00F
.ENDS
******
*SRC=0603HS10N;0603HS10N;Inductors;Nonideal;Coilcraft Model
*SYM=IND
*HELP issyntax.hlp "Coilcraft Inductor Notes - COILCIND.LIB"
.SUBCKT 0603HS10N 1 4
*COILCRAFT INDUCTOR MODEL WITH SKIN EFFECT
R1 1 2 130.00M
B1 2 3 V = TIME > 0 ? ((2.3158K)/(SQRT(PI*TIME)))*(V(3)) : 
+          FREQ+1.0E-20 > 0 ? 22.000U*SQRT(FREQ/(2.0*PI))*I(L1)
L1 3 4 9.5000N
C1 2 4 110.00F
.ENDS
******
*SRC=0603HS12N;0603HS12N;Inductors;Nonideal;Coilcraft Model
*SYM=IND
*HELP issyntax.hlp "Coilcraft Inductor Notes - COILCIND.LIB"
.SUBCKT 0603HS12N 1 4
*COILCRAFT INDUCTOR MODEL WITH SKIN EFFECT
R1 1 2 130.00M
B1 2 3 V = TIME > 0 ? ((1.8596K)/(SQRT(PI*TIME)))*(V(3)) : 
+          FREQ+1.0E-20 > 0 ? 21.200U*SQRT(FREQ/(2.0*PI))*I(L1)
L1 3 4 11.400N
C1 2 4 132.00F
.ENDS
******
*SRC=0603HS15N;0603HS15N;Inductors;Nonideal;Coilcraft Model
*SYM=IND
*HELP issyntax.hlp "Coilcraft Inductor Notes - COILCIND.LIB"
.SUBCKT 0603HS15N 1 4
*COILCRAFT INDUCTOR MODEL WITH SKIN EFFECT
R1 1 2 170.00M
B1 2 3 V = TIME > 0 ? ((1.9331K)/(SQRT(PI*TIME)))*(V(3)) : 
+          FREQ+1.0E-20 > 0 ? 27.450U*SQRT(FREQ/(2.0*PI))*I(L1)
L1 3 4 14.200N
C1 2 4 106.00F
.ENDS
******
*SRC=0603HS18N;0603HS18N;Inductors;Nonideal;Coilcraft Model
*SYM=IND
*HELP issyntax.hlp "Coilcraft Inductor Notes - COILCIND.LIB"
.SUBCKT 0603HS18N 1 4
*COILCRAFT INDUCTOR MODEL WITH SKIN EFFECT
R1 1 2 170.00M
B1 2 3 V = TIME > 0 ? ((1.9883K)/(SQRT(PI*TIME)))*(V(3)) : 
+          FREQ+1.0E-20 > 0 ? 34.000U*SQRT(FREQ/(2.0*PI))*I(L1)
L1 3 4 17.100N
C1 2 4 125.00F
.ENDS
******
*SRC=0603HS22N;0603HS22N;Inductors;Nonideal;Coilcraft Model
*SYM=IND
*HELP issyntax.hlp "Coilcraft Inductor Notes - COILCIND.LIB"
.SUBCKT 0603HS22N 1 4
*COILCRAFT INDUCTOR MODEL WITH SKIN EFFECT
R1 1 2 190.00M
B1 2 3 V = TIME > 0 ? ((1.8660K)/(SQRT(PI*TIME)))*(V(3)) : 
+          FREQ+1.0E-20 > 0 ? 39.000U*SQRT(FREQ/(2.0*PI))*I(L1)
L1 3 4 20.900N
C1 2 4 110.00F
.ENDS
******
*SRC=0603HS27N;0603HS27N;Inductors;Nonideal;Coilcraft Model
*SYM=IND
*HELP issyntax.hlp "Coilcraft Inductor Notes - COILCIND.LIB"
.SUBCKT 0603HS27N 1 4
*COILCRAFT INDUCTOR MODEL WITH SKIN EFFECT
R1 1 2 220.00M
B1 2 3 V = TIME > 0 ? ((2.1241K)/(SQRT(PI*TIME)))*(V(3)) : 
+          FREQ+1.0E-20 > 0 ? 56.500U*SQRT(FREQ/(2.0*PI))*I(L1)
L1 3 4 26.600N
C1 2 4 90.000F
.ENDS
******
*SRC=0603HS33N;0603HS33N;Inductors;Nonideal;Coilcraft Model
*SYM=IND
*HELP issyntax.hlp "Coilcraft Inductor Notes - COILCIND.LIB"
.SUBCKT 0603HS33N 1 4
*COILCRAFT INDUCTOR MODEL WITH SKIN EFFECT
R1 1 2 220.00M
B1 2 3 V = TIME > 0 ? ((2.5559K)/(SQRT(PI*TIME)))*(V(3)) : 
+          FREQ+1.0E-20 > 0 ? 80.000U*SQRT(FREQ/(2.0*PI))*I(L1)
L1 3 4 31.300N
C1 2 4 99.000F
.ENDS
******
*SRC=0603HS39N;0603HS39N;Inductors;Nonideal;Coilcraft Model
*SYM=IND
*HELP issyntax.hlp "Coilcraft Inductor Notes - COILCIND.LIB"
.SUBCKT 0603HS39N 1 4
*COILCRAFT INDUCTOR MODEL WITH SKIN EFFECT
R1 1 2 250.00M
B1 2 3 V = TIME > 0 ? ((2.5385K)/(SQRT(PI*TIME)))*(V(3)) : 
+          FREQ+1.0E-20 > 0 ? 99.000U*SQRT(FREQ/(2.0*PI))*I(L1)
L1 3 4 39.000N
C1 2 4 85.000F
.ENDS
******
*SRC=0603HS47N;0603HS47N;Inductors;Nonideal;Coilcraft Model
*SYM=IND
*HELP issyntax.hlp "Coilcraft Inductor Notes - COILCIND.LIB"
.SUBCKT 0603HS47N 1 4
*COILCRAFT INDUCTOR MODEL WITH SKIN EFFECT
R1 1 2 280.00M
B1 2 3 V = TIME > 0 ? ((2.2222K)/(SQRT(PI*TIME)))*(V(3)) : 
+          FREQ+1.0E-20 > 0 ? 100.000U*SQRT(FREQ/(2.0*PI))*I(L1)
L1 3 4 45.000N
C1 2 4 99.000F
.ENDS
******
*SRC=0603HS56N;0603HS56N;Inductors;Nonideal;Coilcraft Model
*SYM=IND
*HELP issyntax.hlp "Coilcraft Inductor Notes - COILCIND.LIB"
.SUBCKT 0603HS56N 1 4
*COILCRAFT INDUCTOR MODEL WITH SKIN EFFECT
R1 1 2 310.00M
B1 2 3 V = TIME > 0 ? ((2.5455K)/(SQRT(PI*TIME)))*(V(3)) : 
+          FREQ+1.0E-20 > 0 ? 140.00U*SQRT(FREQ/(2.0*PI))*I(L1)
L1 3 4 55.000N
C1 2 4 85.000F
.ENDS
******
*SRC=0603HS68N;0603HS68N;Inductors;Nonideal;Coilcraft Model
*SYM=IND
*HELP issyntax.hlp "Coilcraft Inductor Notes - COILCIND.LIB"
.SUBCKT 0603HS68N 1 4
*COILCRAFT INDUCTOR MODEL WITH SKIN EFFECT
R1 1 2 340.00M
B1 2 3 V = TIME > 0 ? ((2.2388K)/(SQRT(PI*TIME)))*(V(3)) : 
+          FREQ+1.0E-20 > 0 ? 150.00U*SQRT(FREQ/(2.0*PI))*I(L1)
L1 3 4 67.000N
C1 2 4 79.000F
.ENDS
******
*SRC=0603HS72N;0603HS72N;Inductors;Nonideal;Coilcraft Model
*SYM=IND
*HELP issyntax.hlp "Coilcraft Inductor Notes - COILCIND.LIB"
.SUBCKT 0603HS72N 1 4
*COILCRAFT INDUCTOR MODEL WITH SKIN EFFECT
R1 1 2 490.00M
B1 2 3 V = TIME > 0 ? ((2.5175K)/(SQRT(PI*TIME)))*(V(3)) : 
+          FREQ+1.0E-20 > 0 ? 180.00U*SQRT(FREQ/(2.0*PI))*I(L1)
L1 3 4 71.500N
C1 2 4 60.200F
.ENDS
******
*SRC=0603HS82N;0603HS82N;Inductors;Nonideal;Coilcraft Model
*SYM=IND
*HELP issyntax.hlp "Coilcraft Inductor Notes - COILCIND.LIB"
.SUBCKT 0603HS82N 1 4
*COILCRAFT INDUCTOR MODEL WITH SKIN EFFECT
R1 1 2 540.00M
B1 2 3 V = TIME > 0 ? ((2.4051K)/(SQRT(PI*TIME)))*(V(3)) : 
+          FREQ+1.0E-20 > 0 ? 190.00U*SQRT(FREQ/(2.0*PI))*I(L1)
L1 3 4 79.000N
C1 2 4 60.000F
.ENDS
******
*SRC=0603HSR10;0603HSR10;Inductors;Nonideal;Coilcraft Model
*SYM=IND
*HELP issyntax.hlp "Coilcraft Inductor Notes - COILCIND.LIB"
.SUBCKT 0603HSR10 1 4
*COILCRAFT INDUCTOR MODEL WITH SKIN EFFECT
R1 1 2 580.00M
B1 2 3 V = TIME > 0 ? ((4.0000K)/(SQRT(PI*TIME)))*(V(3)) : 
+          FREQ+1.0E-20 > 0 ? 400.00U*SQRT(FREQ/(2.0*PI))*I(L1)
L1 3 4 100.00N
C1 2 4 60.000F
.ENDS
******
*SRC=0603HSR11;0603HSR11;Inductors;Nonideal;Coilcraft Model
*SYM=IND
*HELP issyntax.hlp "Coilcraft Inductor Notes - COILCIND.LIB"
.SUBCKT 0603HSR11 1 4
*COILCRAFT INDUCTOR MODEL WITH SKIN EFFECT
R1 1 2 610.00M
B1 2 3 V = TIME > 0 ? ((3.4783K)/(SQRT(PI*TIME)))*(V(3)) : 
+          FREQ+1.0E-20 > 0 ? 400.00U*SQRT(FREQ/(2.0*PI))*I(L1)
L1 3 4 115.00N
C1 2 4 56.500F
.ENDS
******
*SRC=0603HSR12;0603HSR12;Inductors;Nonideal;Coilcraft Model
*SYM=IND
*HELP issyntax.hlp "Coilcraft Inductor Notes - COILCIND.LIB"
.SUBCKT 0603HSR12 1 4
*COILCRAFT INDUCTOR MODEL WITH SKIN EFFECT
R1 1 2 650.00M
B1 2 3 V = TIME > 0 ? ((24.000K)/(SQRT(PI*TIME)))*(V(3)) : 
+          FREQ+1.0E-20 > 0 ? 3.0000M*SQRT(FREQ/(2.0*PI))*I(L1)
L1 3 4 125.00N
C1 2 4 67.000F
.ENDS
******
*SRC=0805030;0805030;Inductors;Nonideal;Coilcraft Model
*SYM=IND
*HELP issyntax.hlp "Coilcraft Inductor Notes - COILCIND.LIB"
.SUBCKT 0805030 1 4
*COILCRAFT INDUCTOR MODEL WITH SKIN EFFECT
R1 1 2 800.00M
B1 2 3 V = TIME > 0 ? ((2.1212K)/(SQRT(PI*TIME)))*(V(3)) : 
+          FREQ+1.0E-20 > 0 ? 7.0000U*SQRT(FREQ/(2.0*PI))*I(L1)
L1 3 4 3.3000N
C1 2 4 213.00F
.ENDS
******
*SRC=0805060;0805060;Inductors;Nonideal;Coilcraft Model
*SYM=IND
*HELP issyntax.hlp "Coilcraft Inductor Notes - COILCIND.LIB"
.SUBCKT 0805060 1 4
*COILCRAFT INDUCTOR MODEL WITH SKIN EFFECT
R1 1 2 81.000M
B1 2 3 V = TIME > 0 ? ((2.3529K)/(SQRT(PI*TIME)))*(V(3)) : 
+          FREQ+1.0E-20 > 0 ? 16.000U*SQRT(FREQ/(2.0*PI))*I(L1)
L1 3 4 6.8000N
C1 2 4 123.00F
.ENDS
******
*SRC=0805080;0805080;Inductors;Nonideal;Coilcraft Model
*SYM=IND
*HELP issyntax.hlp "Coilcraft Inductor Notes - COILCIND.LIB"
.SUBCKT 0805080 1 4
*COILCRAFT INDUCTOR MODEL WITH SKIN EFFECT
R1 1 2 18.000M
B1 2 3 V = TIME > 0 ? ((2.3293K)/(SQRT(PI*TIME)))*(V(3)) : 
+          FREQ+1.0E-20 > 0 ? 19.100U*SQRT(FREQ/(2.0*PI))*I(L1)
L1 3 4 8.2000N
C1 2 4 147.00F
.ENDS
******
*SRC=0805120;0805120;Inductors;Nonideal;Coilcraft Model
*SYM=IND
*HELP issyntax.hlp "Coilcraft Inductor Notes - COILCIND.LIB"
.SUBCKT 0805120 1 4
*COILCRAFT INDUCTOR MODEL WITH SKIN EFFECT
R1 1 2 150.00M
B1 2 3 V = TIME > 0 ? ((2.9167K)/(SQRT(PI*TIME)))*(V(3)) : 
+          FREQ+1.0E-20 > 0 ? 35.000U*SQRT(FREQ/(2.0*PI))*I(L1)
L1 3 4 12.000N
C1 2 4 10.200F
.ENDS
******
*SRC=0805150;0805150;Inductors;Nonideal;Coilcraft Model
*SYM=IND
*HELP issyntax.hlp "Coilcraft Inductor Notes - COILCIND.LIB"
.SUBCKT 0805150 1 4
*COILCRAFT INDUCTOR MODEL WITH SKIN EFFECT
R1 1 2 200.00M
B1 2 3 V = TIME > 0 ? ((2.2667K)/(SQRT(PI*TIME)))*(V(3)) : 
+          FREQ+1.0E-20 > 0 ? 34.000U*SQRT(FREQ/(2.0*PI))*I(L1)
L1 3 4 15.000N
C1 2 4 180.00F
.ENDS
******
*SRC=0805180;0805180;Inductors;Nonideal;Coilcraft Model
*SYM=IND
*HELP issyntax.hlp "Coilcraft Inductor Notes - COILCIND.LIB"
.SUBCKT 0805180 1 4
*COILCRAFT INDUCTOR MODEL WITH SKIN EFFECT
R1 1 2 200.00M
B1 2 3 V = TIME > 0 ? ((1.2778K)/(SQRT(PI*TIME)))*(V(3)) : 
+          FREQ+1.0E-20 > 0 ? 23.000U*SQRT(FREQ/(2.0*PI))*I(L1)
L1 3 4 18.000N
C1 2 4 200.00F
.ENDS
******
*SRC=0805220;0805220;Inductors;Nonideal;Coilcraft Model
*SYM=IND
*HELP issyntax.hlp "Coilcraft Inductor Notes - COILCIND.LIB"
.SUBCKT 0805220 1 4
*COILCRAFT INDUCTOR MODEL WITH SKIN EFFECT
R1 1 2 220.00M
B1 2 3 V = TIME > 0 ? ((1.5909K)/(SQRT(PI*TIME)))*(V(3)) : 
+          FREQ+1.0E-20 > 0 ? 35.000U*SQRT(FREQ/(2.0*PI))*I(L1)
L1 3 4 22.000N
C1 2 4 200.00F
.ENDS
******
*SRC=0805270;0805270;Inductors;Nonideal;Coilcraft Model
*SYM=IND
*HELP issyntax.hlp "Coilcraft Inductor Notes - COILCIND.LIB"
.SUBCKT 0805270 1 4
*COILCRAFT INDUCTOR MODEL WITH SKIN EFFECT
R1 1 2 250.00M
B1 2 3 V = TIME > 0 ? ((1.7200K)/(SQRT(PI*TIME)))*(V(3)) : 
+          FREQ+1.0E-20 > 0 ? 43.000U*SQRT(FREQ/(2.0*PI))*I(L1)
L1 3 4 25.000N
C1 2 4 170.00F
.ENDS
******
*SRC=0805330;0805330;Inductors;Nonideal;Coilcraft Model
*SYM=IND
*HELP issyntax.hlp "Coilcraft Inductor Notes - COILCIND.LIB"
.SUBCKT 0805330 1 4
*COILCRAFT INDUCTOR MODEL WITH SKIN EFFECT
R1 1 2 270.00M
B1 2 3 V = TIME > 0 ? ((1.3636K)/(SQRT(PI*TIME)))*(V(3)) : 
+          FREQ+1.0E-20 > 0 ? 45.000U*SQRT(FREQ/(2.0*PI))*I(L1)
L1 3 4 33.000N
C1 2 4 160.00F
.ENDS
******
*SRC=0805390;0805390;Inductors;Nonideal;Coilcraft Model
*SYM=IND
*HELP issyntax.hlp "Coilcraft Inductor Notes - COILCIND.LIB"
.SUBCKT 0805390 1 4
*COILCRAFT INDUCTOR MODEL WITH SKIN EFFECT
R1 1 2 290.00M
B1 2 3 V = TIME > 0 ? ((1.2821K)/(SQRT(PI*TIME)))*(V(3)) : 
+          FREQ+1.0E-20 > 0 ? 50.000U*SQRT(FREQ/(2.0*PI))*I(L1)
L1 3 4 39.000N
C1 2 4 150.00F
.ENDS
******
*SRC=0805560;0805560;Inductors;Nonideal;Coilcraft Model
*SYM=IND
*HELP issyntax.hlp "Coilcraft Inductor Notes - COILCIND.LIB"
.SUBCKT 0805560 1 4
*COILCRAFT INDUCTOR MODEL WITH SKIN EFFECT
R1 1 2 340.00M
B1 2 3 V = TIME > 0 ? ((2.8571K)/(SQRT(PI*TIME)))*(V(3)) : 
+          FREQ+1.0E-20 > 0 ? 160.00U*SQRT(FREQ/(2.0*PI))*I(L1)
L1 3 4 56.000N
C1 2 4 140.00F
.ENDS
*******
*SRC=0805680;0805680;Inductors;Nonideal;Coilcraft Model
*SYM=IND
*HELP issyntax.hlp "Coilcraft Inductor Notes - COILCIND.LIB"
.SUBCKT 0805680 1 4
*COILCRAFT INDUCTOR MODEL WITH SKIN EFFECT
R1 1 2 340.00M
B1 2 3 V = TIME > 0 ? ((1.9853K)/(SQRT(PI*TIME)))*(V(3)) : 
+          FREQ+1.0E-20 > 0 ? 135.00U*SQRT(FREQ/(2.0*PI))*I(L1)
L1 3 4 68.000N
C1 2 4 129.00F
.ENDS
******
*SRC=0805820;0805820;Inductors;Nonideal;Coilcraft Model
*SYM=IND
*HELP issyntax.hlp "Coilcraft Inductor Notes - COILCIND.LIB"
.SUBCKT 0805820 1 4
*COILCRAFT INDUCTOR MODEL WITH SKIN EFFECT
R1 1 2 420.00M
B1 2 3 V = TIME > 0 ? ((1.4634K)/(SQRT(PI*TIME)))*(V(3)) : 
+          FREQ+1.0E-20 > 0 ? 120.00U*SQRT(FREQ/(2.0*PI))*I(L1)
L1 3 4 82.000N
C1 2 4 115.00F
.ENDS
*******
*SRC=0805101;0805101;Inductors;Nonideal;Coilcraft Model
*SYM=IND
*HELP issyntax.hlp "Coilcraft Inductor Notes - COILCIND.LIB"
.SUBCKT 0805101 1 4
*COILCRAFT INDUCTOR MODEL WITH SKIN EFFECT
R1 1 2 460.00M
B1 2 3 V = TIME > 0 ? ((1.5670K)/(SQRT(PI*TIME)))*(V(3)) : 
+          FREQ+1.0E-20 > 0 ? 152.00U*SQRT(FREQ/(2.0*PI))*I(L1)
L1 3 4 97.000N
C1 2 4 131.00F
.ENDS
*******
*SRC=0805121;0805121;Inductors;Nonideal;Coilcraft Model
*SYM=IND
*HELP issyntax.hlp "Coilcraft Inductor Notes - COILCIND.LIB"
.SUBCKT 0805121 1 4
*COILCRAFT INDUCTOR MODEL WITH SKIN EFFECT
R1 1 2 510.00M
B1 2 3 V = TIME > 0 ? ((1.5000K)/(SQRT(PI*TIME)))*(V(3)) : 
+          FREQ+1.0E-20 > 0 ? 180.00U*SQRT(FREQ/(2.0*PI))*I(L1)
L1 3 4 120.00N
C1 2 4 105.00F
.ENDS
*******
*SRC=0805151;0805151;Inductors;Nonideal;Coilcraft Model
*SYM=IND
*HELP issyntax.hlp "Coilcraft Inductor Notes - COILCIND.LIB"
.SUBCKT 0805151 1 4
*COILCRAFT INDUCTOR MODEL WITH SKIN EFFECT
R1 1 2 560.00M
B1 2 3 V = TIME > 0 ? ((1.6667K)/(SQRT(PI*TIME)))*(V(3)) : 
+          FREQ+1.0E-20 > 0 ? 250.00U*SQRT(FREQ/(2.0*PI))*I(L1)
L1 3 4 150.00N
C1 2 4 120.00F
.ENDS
*******
*SRC=0805181;0805181;Inductors;Nonideal;Coilcraft Model
*SYM=IND
*HELP issyntax.hlp "Coilcraft Inductor Notes - COILCIND.LIB"
.SUBCKT 0805181 1 4
*COILCRAFT INDUCTOR MODEL WITH SKIN EFFECT
R1 1 2 640.00M
B1 2 3 V = TIME > 0 ? ((1.4444K)/(SQRT(PI*TIME)))*(V(3)) : 
+          FREQ+1.0E-20 > 0 ? 260.00U*SQRT(FREQ/(2.0*PI))*I(L1)
L1 3 4 180.00N
C1 2 4 110.00F
.ENDS
******
*SRC=0805221;0805221;Inductors;Nonideal;Coilcraft Model
*SYM=IND
*HELP issyntax.hlp "Coilcraft Inductor Notes - COILCIND.LIB"
.SUBCKT 0805221 1 4
*COILCRAFT INDUCTOR MODEL WITH SKIN EFFECT
R1 1 2 700.00M
B1 2 3 V = TIME > 0 ? ((1.3182K)/(SQRT(PI*TIME)))*(V(3)) : 
+          FREQ+1.0E-20 > 0 ? 290.00U*SQRT(FREQ/(2.0*PI))*I(L1)
L1 3 4 220.00N
C1 2 4 90.000F
.ENDS
******
*SRC=1008040;1008040;Inductors;Nonideal;Coilcraft Model
*SYM=IND
*HELP issyntax.hlp "Coilcraft Inductor Notes - COILCIND.LIB"
.SUBCKT 1008040 1 4
*COILCRAFT INDUCTOR MODEL WITH SKIN EFFECT
R1 1 2 100.00M
B1 2 3 V = TIME > 0 ? ((3.4615K)/(SQRT(PI*TIME)))*(V(3)) : 
+          FREQ+1.0E-20 > 0 ? 13.500U*SQRT(FREQ/(2.0*PI))*I(L1)
L1 3 4 3.9000N
C1 2 4 90.600F
.ENDS
******
*SRC=1008080;1008080;Inductors;Nonideal;Coilcraft Model
*SYM=IND
*HELP issyntax.hlp "Coilcraft Inductor Notes - COILCIND.LIB"
.SUBCKT 1008080 1 4
*COILCRAFT INDUCTOR MODEL WITH SKIN EFFECT
R1 1 2 120.00M
B1 2 3 V = TIME > 0 ? ((2.7922K)/(SQRT(PI*TIME)))*(V(3)) : 
+          FREQ+1.0E-20 > 0 ? 21.500U*SQRT(FREQ/(2.0*PI))*I(L1)
L1 3 4 7.7000N
C1 2 4 203.00F
.ENDS
******
*SRC=1008100;1008100;Inductors;Nonideal;Coilcraft Model
*SYM=IND
*HELP issyntax.hlp "Coilcraft Inductor Notes - COILCIND.LIB"
.SUBCKT 1008100 1 4
*COILCRAFT INDUCTOR MODEL WITH SKIN EFFECT
R1 1 2 50.000M
B1 2 3 V = TIME > 0 ? ((2.1053K)/(SQRT(PI*TIME)))*(V(3)) : 
+          FREQ+1.0E-20 > 0 ? 20.000U*SQRT(FREQ/(2.0*PI))*I(L1)
L1 3 4 9.5000N
C1 2 4 167.00F
.ENDS
*******
*SRC=1008120;1008120;Inductors;Nonideal;Coilcraft Model
*SYM=IND
*HELP issyntax.hlp "Coilcraft Inductor Notes - COILCIND.LIB"
.SUBCKT 1008120 1 4
*COILCRAFT INDUCTOR MODEL WITH SKIN EFFECT
R1 1 2 70.000M
B1 2 3 V = TIME > 0 ? ((2.2901K)/(SQRT(PI*TIME)))*(V(3)) : 
+          FREQ+1.0E-20 > 0 ? 30.000U*SQRT(FREQ/(2.0*PI))*I(L1)
L1 3 4 13.100N
C1 2 4 322.00F
.ENDS
******
*SRC=1008150;1008150;Inductors;Nonideal;Coilcraft Model
*SYM=IND
*HELP issyntax.hlp "Coilcraft Inductor Notes - COILCIND.LIB"
.SUBCKT 1008150 1 4
*COILCRAFT INDUCTOR MODEL WITH SKIN EFFECT
R1 1 2 100.00M
B1 2 3 V = TIME > 0 ? ((2.1277K)/(SQRT(PI*TIME)))*(V(3)) : 
+          FREQ+1.0E-20 > 0 ? 30.000U*SQRT(FREQ/(2.0*PI))*I(L1)
L1 3 4 14.100N
C1 2 4 295.00F
.ENDS
*******
*SRC=1008180;1008180;Inductors;Nonideal;Coilcraft Model
*SYM=IND
*HELP issyntax.hlp "Coilcraft Inductor Notes - COILCIND.LIB"
.SUBCKT 1008180 1 4
*COILCRAFT INDUCTOR MODEL WITH SKIN EFFECT
R1 1 2 110.00M
B1 2 3 V = TIME > 0 ? ((1.2079K)/(SQRT(PI*TIME)))*(V(3)) : 
+          FREQ+1.0E-20 > 0 ? 21.500U*SQRT(FREQ/(2.0*PI))*I(L1)
L1 3 4 17.800N
C1 2 4 205.00F
.ENDS
******
*SRC=1008220;1008220;Inductors;Nonideal;Coilcraft Model
*SYM=IND
*HELP issyntax.hlp "Coilcraft Inductor Notes - COILCIND.LIB"
.SUBCKT 1008220 1 4
*COILCRAFT INDUCTOR MODEL WITH SKIN EFFECT
R1 1 2 120.00M
B1 2 3 V = TIME > 0 ? ((1.6667K)/(SQRT(PI*TIME)))*(V(3)) : 
+          FREQ+1.0E-20 > 0 ? 35.500U*SQRT(FREQ/(2.0*PI))*I(L1)
L1 3 4 21.300N
C1 2 4 258.00F
.ENDS
******
*SRC=1008270;1008270;Inductors;Nonideal;Coilcraft Model
*SYM=IND
*HELP issyntax.hlp "Coilcraft Inductor Notes - COILCIND.LIB"
.SUBCKT 1008270 1 4
*COILCRAFT INDUCTOR MODEL WITH SKIN EFFECT
R1 1 2 130.00M
B1 2 3 V = TIME > 0 ? ((5.8491K)/(SQRT(PI*TIME)))*(V(3)) : 
+          FREQ+1.0E-20 > 0 ? 155.00U*SQRT(FREQ/(2.0*PI))*I(L1)
L1 3 4 26.500N
C1 2 4 270.00F
.ENDS
******
*SRC=1008330;1008330;Inductors;Nonideal;Coilcraft Model
*SYM=IND
*HELP issyntax.hlp "Coilcraft Inductor Notes - COILCIND.LIB"
.SUBCKT 1008330 1 4
*COILCRAFT INDUCTOR MODEL WITH SKIN EFFECT
R1 1 2 140.00M
B1 2 3 V = TIME > 0 ? ((1.7290K)/(SQRT(PI*TIME)))*(V(3)) : 
+          FREQ+1.0E-20 > 0 ? 55.500U*SQRT(FREQ/(2.0*PI))*I(L1)
L1 3 4 32.100N
C1 2 4 201.00F
.ENDS
******
*SRC=1008390;1008390;Inductors;Nonideal;Coilcraft Model
*SYM=IND
*HELP issyntax.hlp "Coilcraft Inductor Notes - COILCIND.LIB"
.SUBCKT 1008390 1 4
*COILCRAFT INDUCTOR MODEL WITH SKIN EFFECT
R1 1 2 150.00M
B1 2 3 V = TIME > 0 ? ((1.6795K)/(SQRT(PI*TIME)))*(V(3)) : 
+          FREQ+1.0E-20 > 0 ? 65.500U*SQRT(FREQ/(2.0*PI))*I(L1)
L1 3 4 39.000N
C1 2 4 205.00F
.ENDS
******
*SRC=1008470;1008470;Inductors;Nonideal;Coilcraft Model
*SYM=IND
*HELP issyntax.hlp "Coilcraft Inductor Notes - COILCIND.LIB"
.SUBCKT 1008470 1 4
*COILCRAFT INDUCTOR MODEL WITH SKIN EFFECT
R1 1 2 160.00M
B1 2 3 V = TIME > 0 ? ((2.1505K)/(SQRT(PI*TIME)))*(V(3)) : 
+          FREQ+1.0E-20 > 0 ? 100.000U*SQRT(FREQ/(2.0*PI))*I(L1)
L1 3 4 46.500N
C1 2 4 155.00F
.ENDS
*******
*SRC=1008560;1008560;Inductors;Nonideal;Coilcraft Model
*SYM=IND
*HELP issyntax.hlp "Coilcraft Inductor Notes - COILCIND.LIB"
.SUBCKT 1008560 1 4
*COILCRAFT INDUCTOR MODEL WITH SKIN EFFECT
R1 1 2 180.00M
B1 2 3 V = TIME > 0 ? ((2.2686K)/(SQRT(PI*TIME)))*(V(3)) : 
+          FREQ+1.0E-20 > 0 ? 125.00U*SQRT(FREQ/(2.0*PI))*I(L1)
L1 3 4 55.100N
C1 2 4 200.00F
.ENDS
******
*SRC=1008680;1008680;Inductors;Nonideal;Coilcraft Model
*SYM=IND
*HELP issyntax.hlp "Coilcraft Inductor Notes - COILCIND.LIB"
.SUBCKT 1008680 1 4
*COILCRAFT INDUCTOR MODEL WITH SKIN EFFECT
R1 1 2 200.00M
B1 2 3 V = TIME > 0 ? ((1.4925K)/(SQRT(PI*TIME)))*(V(3)) : 
+          FREQ+1.0E-20 > 0 ? 100.000U*SQRT(FREQ/(2.0*PI))*I(L1)
L1 3 4 67.000N
C1 2 4 161.00F
.ENDS
******
*SRC=1008820;1008820;Inductors;Nonideal;Coilcraft Model
*SYM=IND
*HELP issyntax.hlp "Coilcraft Inductor Notes - COILCIND.LIB"
.SUBCKT 1008820 1 4
*COILCRAFT INDUCTOR MODEL WITH SKIN EFFECT
R1 1 2 220.00M
B1 2 3 V = TIME > 0 ? ((11.166K)/(SQRT(PI*TIME)))*(V(3)) : 
+          FREQ+1.0E-20 > 0 ? 910.00U*SQRT(FREQ/(2.0*PI))*I(L1)
L1 3 4 81.500N
C1 2 4 250.00F
.ENDS
******
*SRC=1008101;1008101;Inductors;Nonideal;Coilcraft Model
*SYM=IND
*HELP issyntax.hlp "Coilcraft Inductor Notes - COILCIND.LIB"
.SUBCKT 1008101 1 4
*COILCRAFT INDUCTOR MODEL WITH SKIN EFFECT
R1 1 2 560.00M
B1 2 3 V = TIME > 0 ? ((1.5000K)/(SQRT(PI*TIME)))*(V(3)) : 
+          FREQ+1.0E-20 > 0 ? 150.00U*SQRT(FREQ/(2.0*PI))*I(L1)
L1 3 4 100.00N
C1 2 4 164.00F
.ENDS
******
*SRC=1008121;1008121;Inductors;Nonideal;Coilcraft Model
*SYM=IND
*HELP issyntax.hlp "Coilcraft Inductor Notes - COILCIND.LIB"
.SUBCKT 1008121 1 4
*COILCRAFT INDUCTOR MODEL WITH SKIN EFFECT
R1 1 2 630.00M
B1 2 3 V = TIME > 0 ? ((2.5000K)/(SQRT(PI*TIME)))*(V(3)) : 
+          FREQ+1.0E-20 > 0 ? 300.00U*SQRT(FREQ/(2.0*PI))*I(L1)
L1 3 4 120.00N
C1 2 4 155.00F
.ENDS
******
*SRC=1008151;1008151;Inductors;Nonideal;Coilcraft Model
*SYM=IND
*HELP issyntax.hlp "Coilcraft Inductor Notes - COILCIND.LIB"
.SUBCKT 1008151 1 4
*COILCRAFT INDUCTOR MODEL WITH SKIN EFFECT
R1 1 2 700.00M
B1 2 3 V = TIME > 0 ? ((2.0270K)/(SQRT(PI*TIME)))*(V(3)) : 
+          FREQ+1.0E-20 > 0 ? 300.00U*SQRT(FREQ/(2.0*PI))*I(L1)
L1 3 4 148.00N
C1 2 4 175.00F
.ENDS
******
*SRC=1008181;1008181;Inductors;Nonideal;Coilcraft Model
*SYM=IND
*HELP issyntax.hlp "Coilcraft Inductor Notes - COILCIND.LIB"
.SUBCKT 1008181 1 4
*COILCRAFT INDUCTOR MODEL WITH SKIN EFFECT
R1 1 2 770.00M
B1 2 3 V = TIME > 0 ? ((1.1732K)/(SQRT(PI*TIME)))*(V(3)) : 
+          FREQ+1.0E-20 > 0 ? 210.00U*SQRT(FREQ/(2.0*PI))*I(L1)
L1 3 4 179.00N
C1 2 4 165.00F
.ENDS
*******
*SRC=1008221;1008221;Inductors;Nonideal;Coilcraft Model
*SYM=IND
*HELP issyntax.hlp "Coilcraft Inductor Notes - COILCIND.LIB"
.SUBCKT 1008221 1 4
*COILCRAFT INDUCTOR MODEL WITH SKIN EFFECT
R1 1 2 840.00M
B1 2 3 V = TIME > 0 ? ((1.1364K)/(SQRT(PI*TIME)))*(V(3)) : 
+          FREQ+1.0E-20 > 0 ? 250.00U*SQRT(FREQ/(2.0*PI))*I(L1)
L1 3 4 220.00N
C1 2 4 170.00F
.ENDS
******
*SRC=1008271;1008271;Inductors;Nonideal;Coilcraft Model
*SYM=IND
*HELP issyntax.hlp "Coilcraft Inductor Notes - COILCIND.LIB"
.SUBCKT 1008271 1 4
*COILCRAFT INDUCTOR MODEL WITH SKIN EFFECT
R1 1 2 540.00M
B1 2 3 V = TIME > 0 ? ((1.2075K)/(SQRT(PI*TIME)))*(V(3)) : 
+          FREQ+1.0E-20 > 0 ? 320.00U*SQRT(FREQ/(2.0*PI))*I(L1)
L1 3 4 265.00N
C1 2 4 15.100P
.ENDS
******
*SRC=1008331;1008331;Inductors;Nonideal;Coilcraft Model
*SYM=IND
*HELP issyntax.hlp "Coilcraft Inductor Notes - COILCIND.LIB"
.SUBCKT 1008331 1 4
*COILCRAFT INDUCTOR MODEL WITH SKIN EFFECT
R1 1 2 1.0500 
B1 2 3 V = TIME > 0 ? ((925.93 )/(SQRT(PI*TIME)))*(V(3)) : 
+          FREQ+1.0E-20 > 0 ? 300.00U*SQRT(FREQ/(2.0*PI))*I(L1)
L1 3 4 324.00N
C1 2 4 170.00F
.ENDS
*******
*SRC=1008391;1008391;Inductors;Nonideal;Coilcraft Model
*SYM=IND
*HELP issyntax.hlp "Coilcraft Inductor Notes - COILCIND.LIB"
.SUBCKT 1008391 1 4
*COILCRAFT INDUCTOR MODEL WITH SKIN EFFECT
R1 1 2 1.1200 
B1 2 3 V = TIME > 0 ? ((1.0256K)/(SQRT(PI*TIME)))*(V(3)) : 
+          FREQ+1.0E-20 > 0 ? 400.00U*SQRT(FREQ/(2.0*PI))*I(L1)
L1 3 4 390.00N
C1 2 4 174.00F
.ENDS
******
*SRC=1008471;1008471;Inductors;Nonideal;Coilcraft Model
*SYM=IND
*HELP issyntax.hlp "Coilcraft Inductor Notes - COILCIND.LIB"
.SUBCKT 1008471 1 4
*COILCRAFT INDUCTOR MODEL WITH SKIN EFFECT
R1 1 2 1.1900 
B1 2 3 V = TIME > 0 ? ((1.1702K)/(SQRT(PI*TIME)))*(V(3)) : 
+          FREQ+1.0E-20 > 0 ? 550.00U*SQRT(FREQ/(2.0*PI))*I(L1)
L1 3 4 470.00N
C1 2 4 178.00F
.ENDS
*******
*SRC=1008561;1008561;Inductors;Nonideal;Coilcraft Model
*SYM=IND
*HELP issyntax.hlp "Coilcraft Inductor Notes - COILCIND.LIB"
.SUBCKT 1008561 1 4
*COILCRAFT INDUCTOR MODEL WITH SKIN EFFECT
R1 1 2 1.3300 
B1 2 3 V = TIME > 0 ? ((982.14 )/(SQRT(PI*TIME)))*(V(3)) : 
+          FREQ+1.0E-20 > 0 ? 550.00U*SQRT(FREQ/(2.0*PI))*I(L1)
L1 3 4 560.00N
C1 2 4 213.00F
.ENDS
******
*SRC=1008681;1008681;Inductors;Nonideal;Coilcraft Model
*SYM=IND
*HELP issyntax.hlp "Coilcraft Inductor Notes - COILCIND.LIB"
.SUBCKT 1008681 1 4
*COILCRAFT INDUCTOR MODEL WITH SKIN EFFECT
R1 1 2 1.4700 
B1 2 3 V = TIME > 0 ? ((1.0294K)/(SQRT(PI*TIME)))*(V(3)) : 
+          FREQ+1.0E-20 > 0 ? 700.00U*SQRT(FREQ/(2.0*PI))*I(L1)
L1 3 4 680.00N
C1 2 4 175.00F
.ENDS
******
*SRC=1008751;1008751;Inductors;Nonideal;Coilcraft Model
*SYM=IND
*HELP issyntax.hlp "Coilcraft Inductor Notes - COILCIND.LIB"
.SUBCKT 1008751 1 4
*COILCRAFT INDUCTOR MODEL WITH SKIN EFFECT
R1 1 2 1.5400 
B1 2 3 V = TIME > 0 ? ((800.00 )/(SQRT(PI*TIME)))*(V(3)) : 
+          FREQ+1.0E-20 > 0 ? 600.00U*SQRT(FREQ/(2.0*PI))*I(L1)
L1 3 4 750.00N
C1 2 4 175.00F
.ENDS
******
*SRC=1008821;1008821;Inductors;Nonideal;Coilcraft Model
*SYM=IND
*HELP issyntax.hlp "Coilcraft Inductor Notes - COILCIND.LIB"
.SUBCKT 1008821 1 4
*COILCRAFT INDUCTOR MODEL WITH SKIN EFFECT
R1 1 2 1.6100 
B1 2 3 V = TIME > 0 ? ((1.0976K)/(SQRT(PI*TIME)))*(V(3)) : 
+          FREQ+1.0E-20 > 0 ? 900.00U*SQRT(FREQ/(2.0*PI))*I(L1)
L1 3 4 820.00N
C1 2 4 200.00F
.ENDS
*******
*SRC=1008911;1008911;Inductors;Nonideal;Coilcraft Model
*SYM=IND
*HELP issyntax.hlp "Coilcraft Inductor Notes - COILCIND.LIB"
.SUBCKT 1008911 1 4
*COILCRAFT INDUCTOR MODEL WITH SKIN EFFECT
R1 1 2 1.6800 
B1 2 3 V = TIME > 0 ? ((1.1715K)/(SQRT(PI*TIME)))*(V(3)) : 
+          FREQ+1.0E-20 > 0 ? 1.0251M*SQRT(FREQ/(2.0*PI))*I(L1)
L1 3 4 875.00N
C1 2 4 200.00F
.ENDS
******
*SRC=1008102;1008102;Inductors;Nonideal;Coilcraft Model
*SYM=IND
*HELP issyntax.hlp "Coilcraft Inductor Notes - COILCIND.LIB"
.SUBCKT 1008102 1 4
*COILCRAFT INDUCTOR MODEL WITH SKIN EFFECT
R1 1 2 1.7500 
B1 2 3 V = TIME > 0 ? ((1.0753K)/(SQRT(PI*TIME)))*(V(3)) : 
+          FREQ+1.0E-20 > 0 ? 1.0000M*SQRT(FREQ/(2.0*PI))*I(L1)
L1 3 4 930.00N
C1 2 4 240.00F
.ENDS
******
*SRC=1008122;1008122;Inductors;Nonideal;Coilcraft Model
*SYM=IND
*HELP issyntax.hlp "Coilcraft Inductor Notes - COILCIND.LIB"
.SUBCKT 1008122 1 4
*COILCRAFT INDUCTOR MODEL WITH SKIN EFFECT
R1 1 2 1.9500 
B1 2 3 V = TIME > 0 ? ((1.0924K)/(SQRT(PI*TIME)))*(V(3)) : 
+          FREQ+1.0E-20 > 0 ? 1.3000M*SQRT(FREQ/(2.0*PI))*I(L1)
L1 3 4 1.1900U
C1 2 4 230.00F
.ENDS
******
*SRC=1008152;1008152;Inductors;Nonideal;Coilcraft Model
*SYM=IND
*HELP issyntax.hlp "Coilcraft Inductor Notes - COILCIND.LIB"
.SUBCKT 1008152 1 4
*COILCRAFT INDUCTOR MODEL WITH SKIN EFFECT
R1 1 2 2.3000 
B1 2 3 V = TIME > 0 ? ((993.79 )/(SQRT(PI*TIME)))*(V(3)) : 
+          FREQ+1.0E-20 > 0 ? 1.6000M*SQRT(FREQ/(2.0*PI))*I(L1)
L1 3 4 1.6100U
C1 2 4 300.00F
.ENDS
******
*SRC=1008182;1008182;Inductors;Nonideal;Coilcraft Model
*SYM=IND
*HELP issyntax.hlp "Coilcraft Inductor Notes - COILCIND.LIB"
.SUBCKT 1008182 1 4
*COILCRAFT INDUCTOR MODEL WITH SKIN EFFECT
R1 1 2 2.6000 
B1 2 3 V = TIME > 0 ? ((1.0556K)/(SQRT(PI*TIME)))*(V(3)) : 
+          FREQ+1.0E-20 > 0 ? 1.9000M*SQRT(FREQ/(2.0*PI))*I(L1)
L1 3 4 1.8000U
C1 2 4 320.00F
.ENDS
******
*SRC=1008222;1008222;Inductors;Nonideal;Coilcraft Model
*SYM=IND
*HELP issyntax.hlp "Coilcraft Inductor Notes - COILCIND.LIB"
.SUBCKT 1008222 1 4
*COILCRAFT INDUCTOR MODEL WITH SKIN EFFECT
R1 1 2 2.8000 
B1 2 3 V = TIME > 0 ? ((1.1468K)/(SQRT(PI*TIME)))*(V(3)) : 
+          FREQ+1.0E-20 > 0 ? 2.5000M*SQRT(FREQ/(2.0*PI))*I(L1)
L1 3 4 2.1800U
C1 2 4 340.00F
.ENDS
******
*SRC=1008272;1008272;Inductors;Nonideal;Coilcraft Model
*SYM=IND
*HELP issyntax.hlp "Coilcraft Inductor Notes - COILCIND.LIB"
.SUBCKT 1008272 1 4
*COILCRAFT INDUCTOR MODEL WITH SKIN EFFECT
R1 1 2 3.2000 
B1 2 3 V = TIME > 0 ? ((1.0769K)/(SQRT(PI*TIME)))*(V(3)) : 
+          FREQ+1.0E-20 > 0 ? 2.8000M*SQRT(FREQ/(2.0*PI))*I(L1)
L1 3 4 2.6000U
C1 2 4 350.00F
.ENDS
******
*SRC=1008332;1008332;Inductors;Nonideal;Coilcraft Model
*SYM=IND
*HELP issyntax.hlp "Coilcraft Inductor Notes - COILCIND.LIB"
.SUBCKT 1008332 1 4
*COILCRAFT INDUCTOR MODEL WITH SKIN EFFECT
R1 1 2 3.4000 
B1 2 3 V = TIME > 0 ? ((1.0303K)/(SQRT(PI*TIME)))*(V(3)) : 
+          FREQ+1.0E-20 > 0 ? 3.4000M*SQRT(FREQ/(2.0*PI))*I(L1)
L1 3 4 3.3000U
C1 2 4 390.00F
.ENDS
******
*SRC=1008392;1008392;Inductors;Nonideal;Coilcraft Model
*SYM=IND
*HELP issyntax.hlp "Coilcraft Inductor Notes - COILCIND.LIB"
.SUBCKT 1008392 1 4
*COILCRAFT INDUCTOR MODEL WITH SKIN EFFECT
R1 1 2 3.6000 
B1 2 3 V = TIME > 0 ? ((1.0513K)/(SQRT(PI*TIME)))*(V(3)) : 
+          FREQ+1.0E-20 > 0 ? 4.1000M*SQRT(FREQ/(2.0*PI))*I(L1)
L1 3 4 3.9000U
C1 2 4 480.00F
.ENDS
******
*SRC=1008472;1008472;Inductors;Nonideal;Coilcraft Model
*SYM=IND
*HELP issyntax.hlp "Coilcraft Inductor Notes - COILCIND.LIB"
.SUBCKT 1008472 1 4
*COILCRAFT INDUCTOR MODEL WITH SKIN EFFECT
R1 1 2 3.8000 
B1 2 3 V = TIME > 0 ? ((940.92 )/(SQRT(PI*TIME)))*(V(3)) : 
+          FREQ+1.0E-20 > 0 ? 4.3000M*SQRT(FREQ/(2.0*PI))*I(L1)
L1 3 4 4.5700U
C1 2 4 510.00F
.ENDS
******
*SRC=1206030;1206030;Inductors;Nonideal;Coilcraft Model
*SYM=IND
*HELP issyntax.hlp "Coilcraft Inductor Notes - COILCIND.LIB"
.SUBCKT 1206030 1 4
*COILCRAFT INDUCTOR MODEL WITH SKIN EFFECT
R1 1 2 500.00M
B1 2 3 V = TIME > 0 ? ((2.1212K)/(SQRT(PI*TIME)))*(V(3)) : 
+          FREQ+1.0E-20 > 0 ? 7.0000U*SQRT(FREQ/(2.0*PI))*I(L1)
L1 3 4 3.3000N
C1 2 4 153.00F
.ENDS
******
*SRC=1206060;1206060;Inductors;Nonideal;Coilcraft Model
*SYM=IND
*HELP issyntax.hlp "Coilcraft Inductor Notes - COILCIND.LIB"
.SUBCKT 1206060 1 4
*COILCRAFT INDUCTOR MODEL WITH SKIN EFFECT
R1 1 2 70.000M
B1 2 3 V = TIME > 0 ? ((1.9672K)/(SQRT(PI*TIME)))*(V(3)) : 
+          FREQ+1.0E-20 > 0 ? 12.000U*SQRT(FREQ/(2.0*PI))*I(L1)
L1 3 4 6.1000N
C1 2 4 50.000F
.ENDS
*******
*SRC=1206100;1206100;Inductors;Nonideal;Coilcraft Model
*SYM=IND
*HELP issyntax.hlp "Coilcraft Inductor Notes - COILCIND.LIB"
.SUBCKT 1206100 1 4
*COILCRAFT INDUCTOR MODEL WITH SKIN EFFECT
R1 1 2 80.000M
B1 2 3 V = TIME > 0 ? ((3.8000K)/(SQRT(PI*TIME)))*(V(3)) : 
+          FREQ+1.0E-20 > 0 ? 38.000U*SQRT(FREQ/(2.0*PI))*I(L1)
L1 3 4 10.0000N
C1 2 4 18.100F
******
*SRC=1206120;1206120;Inductors;Nonideal;Coilcraft Model
*SYM=IND
.ENDS
*HELP issyntax.hlp "Coilcraft Inductor Notes - COILCIND.LIB"
.SUBCKT 1206120 1 4
*COILCRAFT INDUCTOR MODEL WITH SKIN EFFECT
R1 1 2 80.000M
B1 2 3 V = TIME > 0 ? ((1.8333K)/(SQRT(PI*TIME)))*(V(3)) : 