**********
*SRC=CLC109;CLC109;Opamps;Comlinear;Transimpedance
*SYM=ADBUFF
* CLC109 Macromodel Net List--- Subcircuit Format (MMD.05)
*
*    This is a Low-Power, Wideband, Closed-Loop Buffer
*
* Version 1, Rev. A, Date 05-05-94, by KEB
*
* Connections: Input
*              | Output
*              | | +Vcc
*              | | | -Vee
*              | | | |
.SUBCKT CLC109 4 8 1 5
*
* INPUT STAGE
*
F1 4 0 POLY(2) V3 V4 0 1.00 1.00
C1 4 0 1.00P
E1 12 4 POLY(2) 44 0 45 0 -1.00M 1.00 1.00
*
R1 1 10 300
V1 10 11 750M
C2 11 31 800F
C3 11 20 800F
Q1 11 12 22 QINN
*
Q2 13 12 20 QINP
C4 13 35 400F
C5 13 22 400F
V2 13 14 750M
R2 14 5 300
*
G1 1 20 POLY(2) 1 5 1 10 -136U 90.9U 3.30M
C6 20 0 1.20P
D1 20 21 DX
D2 21 22 DX
C7 22 0 1.20P
G2 22 5 POLY(2) 1 5 14 5 -136U 90.9U 3.30M
*
G3 1 31 POLY(2) 1 5 1 10 -136U 90.9U 3.30M
E2 1 30 POLY(1) 1 5 514M 28.7M
D3 31 30 DOR
Q4 31 8 22 QINN
Q3 35 8 20 QINP
D6 36 35 DOR
E3 36 5 POLY(1) 1 5 514M 28.7M
G4 35 5 POLY(2) 1 5 14 5 -136U 90.9U 3.30M
*
* OUTPUT STAGE
*
R3 31 32 50.0
D4 32 33 DX
C8 32 0 600F
Q5 1 32 8 QOUTN
*
C9 8 0 1.00P
*
Q6 5 34 8 QOUTP
C10 34 0 1.20P
D5 33 34 DX
R4 34 35 50.0
*
* NOISE BLOCKS
*
G5 41 40 POLY(1) 1 5 -10.2N 6.79N
V3 42 0 3.00
Q7 42 40 0 QNN
Q8 43 41 0 QNP
V4 0 43 3.00
*
G6 45 44 POLY(1) 1 5 -13.9U 9.29U
D9 44 0 DN
D10 0 45 DN
*
* MODELS
*
.MODEL DN D IS=0.166F KF=3.48F AF=1.00
.MODEL DOR D TT=100N
.MODEL DX D IS=1.75E-16 RS=1.00
.MODEL QNN NPN IS=1.00E-15 BF=1.00 KF=1.47F AF=0.66
.MODEL QNP PNP IS=1.00E-15 BF=1.00 KF=1.47F AF=0.66
*
.MODEL QINN NPN
+ IS =1.060E-16 BF =3.239E+02  NF =1.000E+00 VAF=8.457E+01
+ IKF=1.231E-02 ISE=1.478E-17  NE =1.197E+00 BR =3.467E+01
+ NR =1.000E+00 VAR=1.696E+00  IKR=1.982E-02 ISC=1.097E-19
+ NC =1.700E+00 RB =1.359E+02  IRB=0.000E+00 RBM=3.012E+01
+ RE =5.112E+01 RC =2.069E+01  CJE=7.941E-14 VJE=7.973E-01
+ MJE=4.950E-01 TF =2.035E-11  XTF=1.873E+01 VTF=2.825E+00
+ ITF=2.978E-02 PTF=0.000E+00  CJC=1.720E-13 VJC=8.046E-01
+ MJC=4.931E-01 XCJC=1.130E-01 TR =3.564E-10 CJS=3.938E-13
+ VJS=5.723E-01 MJS=4.105E-01  KF =0.000E-12 AF =1.000E+00
+ FC =9.765E-01
*
.MODEL QOUTN NPN
+ IS =7.822E-16 BF =3.239E+02  NF =1.000E+00 VAF=8.457E+01
+ IKF=9.079E-02 ISE=1.090E-16  NE =1.197E+00 BR =3.960E+01
+ NR =1.000E+00 VAR=1.696E+00  IKR=1.462E-01 ISC=5.656E-19
+ NC =1.700E+00 RB =1.843E+01  IRB=0.000E+00 RBM=4.083E+00
+ RE =1.522E-01 RC =6.141E+00  CJE=5.858E-13 VJE=7.973E-01
+ MJE=4.950E-01 TF =1.874E-11  XTF=1.873E+01 VTF=2.825E+00
+ ITF=2.196E-01 PTF=0.000E+00  CJC=5.143E-13 VJC=8.046E-01
+ MJC=4.931E-01 XCJC=1.709E-01 TR =1.069E-09 CJS=8.567E-13
+ VJS=5.723E-01 MJS=4.105E-01  KF =0.000E+00 AF =1.000E+00
+ FC =9.765E-01
*
.MODEL QINP PNP
+ IS =6.431E-17 BF =7.165E+01  NF =1.000E+00 VAF=3.439E+01
+ IKF=9.408E-03 ISE=3.190E-16  NE =1.366E+00 BR =1.712E+01
+ NR =1.000E+00 VAR=1.805E+00  IKR=6.606E-02 ISC=1.882E-18
+ NC =1.634E+00 RB =5.752E+01  IRB=0.000E+00 RBM=1.514E+01
+ RE =5.122E+01 RC =2.925E+01  CJE=7.941E-14 VJE=7.975E-01
+ MJE=5.000E-01 TF =3.253E-11  XTF=5.386E+00 VTF=2.713E+00
+ ITF=2.542E-02 PTF=0.000E+00  CJC=2.725E-13 VJC=7.130E-01
+ MJC=4.200E-01 XCJC=1.130E-01 TR =6.500E-11 CJS=7.417E-13
+ VJS=6.691E-01 MJS=3.950E-01  KF =0.000E-12 AF =1.000E+00
+ FC =8.803E-01
*
.MODEL QOUTP PNP
+ IS =4.744E-16 BF =7.165E+01  NF =1.000E+00 VAF=3.439E+01
+ IKF=6.940E-02 ISE=2.353E-15  NE =1.366E+00 BR =1.948E+01
+ NR =1.000E+00 VAR=1.805E+00  IKR=4.873E-01 ISC=1.322E-17
+ NC =1.634E+00 RB =7.797E+00  IRB=0.000E+00 RBM=2.052E+00
+ RE =1.659E-01 RC =1.037E+01  CJE=5.858E-13 VJE=7.975E-01
+ MJE=5.000E-01 TF =3.073E-11  XTF=5.386E+00 VTF=2.713E+00
+ ITF=1.875E-01 PTF=0.000E+00  CJC=8.147E-13 VJC=7.130E-01
+ MJC=4.200E-01 XCJC=1.709E-01 TR =2.119E-09 CJS=1.364E-12
+ VJS=6.691E-01 MJS=3.950E-01  KF =0.000E+00 AF =1.000E+00
+ FC =8.803E-01
*
.ENDS CLC109
**********
*SRC=CLC111;CLC111;Opamps;Comlinear;Transimpedance
*SYM=ADBUFF
* CLC111 Macromodel Net List--- Subcircuit Format (MMD.05)
*
*    This is a Very Wideband, Ultra-High Slew Rate, Closed-Loop Buffer
*
* Version 1, Rev. A, Date 05-18-94, by KEB
*
* Connections: Input
*              | Output
*              | | +Vcc
*              | | | -Vee
*              | | | |
.SUBCKT CLC111 4 8 1 5
*
* SUPPLIES
*
G5 1 5 POLY(1) 1 5 -273U 142U
*
* INPUT STAGE
*
F1 4 0 POLY(2) V3 V4 0 1.00 1.00
C2 4 0 1.00P
E1 12 4 POLY(2) 44 0 45 0 0 1.00 1.00
*
R1 1 10 150
V1 10 11 750M
C1 1 11 4.32P
C4 11 31 35.0F
C5 11 20 35.0F
Q1 11 12 22 QINN
*
Q2 13 12 20 QINP
C7 13 35 20.0F
C8 13 22 20.0F
C3 13 5 1.89P
V2 13 14 750M
R2 14 5 150
*
G1 1 20 POLY(2) 1 5 1 10 -722U 376U 17.0M
C6 20 0 670F
D1 20 31 DX
D2 20 21 DX
D3 21 22 DX
D4 35 22 DX
C9 22 0 640F
G2 22 5 POLY(2) 1 5 14 5 -722U 376U 17.0M
*
G3 1 31 POLY(2) 1 5 1 10 -510U 265U 12.0M
E2 1 30 POLY(1) 1 5 514M 28.7M
D5 31 30 DOR
Q4 31 8 22 QINN
Q3 35 8 20 QINP
D8 36 35 DOR
E3 36 5 POLY(1) 1 5 514M 28.7M
G4 35 5 POLY(2) 1 5 14 5 -510U 265U 12.0M
*
* OUTPUT STAGE
*
R3 31 32 25.0
D6 32 33 DX 2.00
C10 32 0 850F
Q5 1 32 8 QOUTN
*
C11 8 0 1.00P
*
Q6 5 34 8 QOUTP
C12 34 0 770F
D7 33 34 DX 2.00
R4 34 35 25.0
*
* NOISE BLOCKS
*
G6 41 40 POLY(1) 1 5 -2.12U 1.11U
V3 42 0 3.00
Q7 42 40 0 QNN
Q8 43 41 0 QNP
V4 0 43 3.00
*
I1 45 44 DC 49.6U
D9 44 0 DN
D10 0 45 DN
*
* MODELS
*
.MODEL DN D IS=0.166F KF=17.5F AF=1.00
.MODEL DOR D TT=100N
.MODEL DX D IS=2.20E-16 RS=1.00 TT=2.60E-11
.MODEL QNN NPN IS=1.00F BF=100M KF=1.37E-16 AF=0.265
.MODEL QNP PNP IS=1.00F BF=100M KF=1.37E-16 AF=0.265
*
.MODEL QINN NPN
+ IS =2.121E-16 BF =3.239E+02  NF =1.000E+00 VAF=8.457E+01
+ IKF=2.462E-02 ISE=2.956E-17  NE =1.197E+00 BR =3.719E+01
+ NR =1.000E+00 VAR=1.696E+00  IKR=3.964E-02 ISC=1.835E-19
+ NC =1.700E+00 RB =6.796E+01  IRB=0.000E+00 RBM=1.506E+01
+ RE =1.256E+02 RC =2.645E+01  CJE=1.588E-13 VJE=7.973E-01
+ MJE=4.950E-01 TF =1.948E-11  XTF=1.873E+01 VTF=2.825E+00
+ ITF=5.955E-02 PTF=0.000E+00  CJC=1.720E-13 VJC=8.046E-01
+ MJC=4.931E-01 XCJC=1.386E-01 TR =4.212E-10 CJS=3.938E-13
+ VJS=5.723E-01 MJS=4.105E-01  KF =0.000E+00 AF =1.000E+00
+ FC =9.765E-01
*
.MODEL QOUTN NPN
+ IS =1.880E-15 BF =3.239E+02  NF =1.000E+00 VAF=8.457E+01
+ IKF=2.182E-01 ISE=2.620E-16  NE =1.197E+00 BR =3.971E+01
+ NR =1.000E+00 VAR=1.696E+00  IKR=3.513E-01 ISC=1.348E-18
+ NC =1.700E+00 RB =7.668E+00  IRB=0.000E+00 RBM=1.699E+00
+ RE =1.006E+01 RC =3.738E+00  CJE=1.408E-12 VJE=7.973E-01
+ MJE=4.950E-01 TF =1.871E-11  XTF=1.873E+01 VTF=2.825E+00
+ ITF=5.278E-01 PTF=0.000E+00  CJC=1.224E-12 VJC=8.046E-01
+ MJC=4.931E-01 XCJC=1.726E-01 TR =1.296E-09 CJS=1.496E-12
+ VJS=5.723E-01 MJS=4.105E-01  KF =0.000E+00 AF =1.000E+00
+ FC =9.765E-01
*
.MODEL QINP PNP
+ IS =1.286E-16 BF =7.165E+01  NF =1.000E+00 VAF=3.439E+01
+ IKF=1.882E-02 ISE=6.380E-16  NE =1.366E+00 BR =1.833E+01
+ NR =1.000E+00 VAR=1.805E+00  IKR=1.321E-01 ISC=3.666E-18
+ NC =1.634E+00 RB =2.876E+01  IRB=0.000E+00 RBM=7.568E+00
+ RE =1.256E+02 RC =3.739E+01  CJE=1.588E-13 VJE=7.975E-01
+ MJE=5.000E-01 TF =3.156E-11  XTF=5.386E+00 VTF=2.713E+00
+ ITF=5.084E-02 PTF=0.000E+00  CJC=2.725E-13 VJC=7.130E-01
+ MJC=4.200E-01 XCJC=1.385E-01 TR =1.096E-09 CJS=7.417E-13
+ VJS=6.691E-01 MJS=3.950E-01  KF =0.000E+00 AF =1.000E+00
+ FC =8.803E-01
*
.MODEL QOUTP PNP
+ IS =1.140E-15 BF =7.165E+01  NF =1.000E+00 VAF=3.439E+01
+ IKF=1.668E-01 ISE=5.655E-15  NE =1.366E+00 BR =1.953E+01
+ NR =1.000E+00 VAR=1.805E+00  IKR=1.171E+00 ISC=3.173E-17
+ NC =1.634E+00 RB =3.245E+00  IRB=0.000E+00 RBM=8.539E-01
+ RE =1.007E+01 RC =6.213E+00  CJE=1.408E-12 VJE=7.975E-01
+ MJE=5.000E-01 TF =3.070E-11  XTF=5.386E+00 VTF=2.713E+00
+ ITF=4.506E-01 PTF=0.000E+00  CJC=1.939E-12 VJC=7.130E-01
+ MJC=4.200E-01 XCJC=1.726E-01 TR =2.704E-09 CJS=2.351E-12
+ VJS=6.691E-01 MJS=3.950E-01  KF =0.000E+00 AF =1.000E+00
+ FC =8.803E-01
*
.ENDS CLC111
**********
*SRC=CLC402;CLC402;Opamps;Comlinear;Low Gain, Fast Settling
*SYM=HA5101
* CLC402 Macromodel Net List--- Subcircuit Format (MMD.05)
*
*   This is a Low Gain Monolithic Current Feedback Op Amp
*   with Fast 14-bit Settling (.0025% in 25nS) and Low Power.
*
* Version 1, Rev. B, Date 03-25-94, by KEB
*
* Connections:  Non-Inverting Input
*               | Inverting
*               | | Output
*               | | | +Vcc
*               | | | | -Vee
*               | | | | |
.SUBCKT CLC402  3 2 6 7 4
*
* BIAS CIRCUITRY
*
R1 7 10 1.50K
V1 10 4 3.00
G1 7 15 POLY(2) 7 10 7 15 0 114.0U 5.50U
C1 15 0 853F
G2 17 4 POLY(1) 7 10 0 119U
C3 17 0 692F
*
* INPUT STAGE
*
E1 3 16 POLY(2) 30 0 31 0 -1.10M 1.35 1.35
G3 16 0 POLY(2) 34 0 35 0 0 24.9M 24.9M
C2 16 0 1.50P
D1 15 16 DZ
D2 16 17 DZ
Q3 21 15 2 QINN
Q4 22 17 2 QINP
C4 2 0 1.30P
G4 21 0 POLY(4) 32 0 33 0 2 4 2 7 0 13.5M 13.5M -2.50U 0.50U
*
* GAIN STAGE
*
V2 7 20 1.96
R2 20 21 263
V4 7 24 1.82
D3 25 24 DX
G5 7 25 POLY(1) 20 21 0 8.442M
C6 27 21 1.20P
C8 27 0 699F
G7 7 27 POLY(1) 20 21 0 8.382M
*
R3 22 23 248
V3 23 4 1.81
D4 26 25 DX
V5 26 4 1.58
G6 25 4 POLY(1) 22 23 0 9.122M
C7 28 22 1.20P
C9 28 0 339F
G8 28 4 POLY(1) 22 23 0 9.222M
*
* OUTPUT STAGE
*
R4 25 0 756K
C5 25 0 3.25P
Q5 4 25 27 QOUTP1
Q6 7 25 28 QOUTN1
Q7 7 27 29 QOUTN2
Q8 4 28 29 QOUTP2
R5 29 6 5.00
C10 6 0 1.50P
*
* NOISE BLOCKS
*
I1 31 30 DC 846U
D5 30 0 DN1
D6 0 31 DN1
*
I2 33 32 DC 846U
D7 32 0 DN2
D8 0 33 DN2
*
I3 35 34 DC 846U
D9 34 0 DN1
D10 0 35 DN1
*
* MODELS
*
.MODEL DN1 D IS=0.166F RS=15.2 KF=100F AF=1.00
.MODEL DN2 D IS=0.166F RS=15.2 KF=155F AF=1.00
.MODEL DX D TT=100N
.MODEL DZ D IS=9.13E-17
*
.MODEL QINN NPN
+ IS =1.660E-16 BF =3.239E+02  NF =1.000E+00
+ IKF=2.462E-02 ISE=2.956E-17  NE =1.197E+00 BR =3.719E+01
+ NR =1.000E+00 VAR=1.696E+00  IKR=3.964E-02 ISC=1.835E-19
+ NC =1.700E+00 RB =2.790E+01  IRB=0.000E+00 RBM=1.506E+01
+ RC =2.645E+01 CJE=1.688E-13  VJE=7.973E-01
+ MJE=4.950E-01 TF =9.906E-11  XTF=1.873E+01 VTF=2.825E+00
+ ITF=5.955E-02 PTF=0.000E+00  CJC=1.720E-13 VJC=8.046E-01
+ MJC=4.931E-01 XCJC=1.710E-01 TR =4.212E-10 CJS=1.258E-12
+ VJS=5.723E-01 MJS=0.000E+01  FC =9.765E-01
*
.MODEL QOUTN1 NPN
+ IS =9.386E-16 BF =3.239E+02  NF =1.000E+00 VAF=8.457E+01
+ IKF=2.462E-02 ISE=1.308E-16  NE =1.197E+00 BR =3.956E+01
+ NR =1.000E+00 VAR=1.696E+00  IKR=3.547E-01 ISC=6.787E-19
+ NC =1.700E+00 RB =1.536E+01  IRB=0.000E+00 RBM=3.403E+00
+ RC =1.857E+01 CJE=7.030E-13  VJE=7.973E-01
+ MJE=4.950E-01 TF =1.875E-11  XTF=1.873E+01 VTF=2.825E+00
+ ITF=2.635E-01 PTF=0.000E+00  CJC=6.172E-13 VJC=8.046E-01
+ MJC=4.931E-01 XCJC=1.702E-01 TR =1.069E-09 CJS=1.028E-12
+ VJS=5.723E-01 MJS=4.105E-01  FC =9.765E-01
*
.MODEL QOUTN2 NPN
+ IS =1.880E-15 BF =3.239E+02  NF =1.000E+00 VAF=8.457E+01
+ IKF=2.203E-01 ISE=2.620E-16  NE =1.197E+00 BR =3.971E+01
+ NR =1.000E+00 VAR=1.696E+00  IKR=3.513E-01 ISC=1.348E-18
+ NC =1.700E+00 RB =107.6E+00  IRB=0.000E+00 RBM=101.6E+00
+ RC =1.227E+00 CJE=1.408E-12  VJE=7.973E-01
+ MJE=4.950E-01 TF =1.871E-11  XTF=1.873E+01 VTF=2.825E+00
+ ITF=5.330E-01 PTF=0.000E+00  CJC=1.224E-12 VJC=8.046E-01
+ MJC=4.931E-01 XCJC=1.726E-01 TR =7.776E-10 CJS=1.931E-12
+ VJS=5.723E-01 MJS=4.105E-01  FC =9.765E-01
*
.MODEL QINP PNP
+ IS =1.660E-16 BF =7.165E+01  NF =1.000E+00
+ IKF=1.882E-02 ISE=6.380E-16  NE =1.366E+00 BR =1.833E+01
+ NR =1.000E+00 VAR=1.805E+00  IKR=1.321E-01 ISC=3.666E-18
+ NC =1.634E+00 RB =2.876E+01  IRB=0.000E+00 RBM=7.568E+00
+ RC =3.739E+01 CJE=1.588E-13  VJE=7.975E-01
+ MJE=5.000E-01 TF =1.589E-10  XTF=5.386E+00 VTF=2.713E+00
+ ITF=5.084E-02 PTF=0.000E+00  CJC=2.725E-13 VJC=7.130E-01
+ MJC=4.200E-01 XCJC=1.710E-01 TR =7.500E-11 CJS=1.030E-12
+ VJS=6.691E-01 MJS=0.000E+00  FC =8.803E-01
*
.MODEL QOUTP1 PNP
+ IS =5.693E-16 BF =7.165E+01  NF =1.000E+00 VAF=3.439E+01
+ IKF=8.328E-02 ISE=2.824E-15  NE =1.366E+00 BR =1.923E+01
+ NR =1.000E+00 VAR=1.805E+00  IKR=5.848E-01 ISC=1.586E-17
+ NC =1.634E+00 RB =6.498E+00  IRB=0.000E+00 RBM=1.710E+00
+ RC =1.767E+01 CJE=7.030E-13  VJE=7.975E-01
+ MJE=5.000E-01 TF =3.090E-11  XTF=5.386E+00 VTF=2.713E+00
+ ITF=2.250E-01 PTF=0.000E+00  CJC=9.776E-13 VJC=7.130E-01
+ MJC=4.200E-01 XCJC=1.709E-01 TR =1.450E-10 CJS=1.637E-12
+ VJS=6.691E-01 MJS=3.950E-01  FC =8.803E-01
*
.MODEL QOUTP2 PNP
+ IS =1.158E-15 BF =7.165E+01  NF =1.000E+00 VAF=3.439E+01
+ IKF=1.694E-01 ISE=5.742E-15  NE =1.366E+00 BR =1.953E+01
+ NR =1.000E+00 VAR=1.805E+00  IKR=1.189E+00 ISC=3.173E-17
+ NC =1.634E+00 RB =103.2E+00  IRB=0.000E+00 RBM=100.5E+00
+ RC =8.267E+00 CJE=1.430E-12  VJE=7.975E-01
+ MJE=5.000E-01 TF =3.090E-11  XTF=5.386E+00 VTF=2.713E+00
+ ITF=4.575E-01 PTF=0.000E+00  CJC=2.083E-12 VJC=7.130E-01
+ MJC=4.200E-01 XCJC=1.631E-01 TR =1.150E-10 CJS=3.993E-12
+ VJS=6.691E-01 MJS=3.950E-01  FC =8.803E-01
*
.ENDS CLC402
**********
*SRC=CLC426;CLC426;Opamps;Comlinear;Transimpedance
*SYM=CLC426
* CLC426 Macromodel Net List--- Subcircuit Format (MMD.05)
*
*   This is an Ultra Low Noise, Wide band Monolithic Voltage
*   Feedback Op Amp with Current Supply Adjust and External
*   Compensation.
*
* Version 1, Rev. A, Date 04-26-94, by KEB
*
* Connections: Non-Inverting Input
*              | Inverting
*              | | Output
*              | | | +Vcc
*              | | | | -Vee
*              | | | | | Icc Adjust (Rp)
*              | | | | | | External Compensation
*              | | | | | | |
.SUBCKT CLC426 3 2 6 7 4 8 5
*
* BIAS CIRCUITRY
*
R1 7 10 100
Q1 10 12 11 QINN1
D1 11 12 DZ
R2 11 8 1.00K
C1 8 0 1.00P
R3 8 4 1.00G
R4 7 12 100K
D2 12 13 DZ
D3 13 4 DZ
*
G1 0 14 POLY(3) 12 4 7 10 0 14 -226M 294M -10.0 1.00M
D4 0 14 DY
*
G2 7 20 POLY(2) 14 0 7 20 -442N 2.56U 1.39U
C2 20 0 800F
G7 7 34 POLY(2) 14 0 7 34 -442N 2.56U 1.39U
C5 34 0 800F
*
G4 21 4 POLY(2) 14 0 21 4 9.27U 5.43U 400N
C4 21 0 400F
G9 36 4 POLY(2) 14 0 36 4 9.27U 5.43U 400N
C7 36 0 400F
*
* INPUT STAGE
*
C3 2 0 1.00P
G3 2 0 POLY(2) 50 0 51 0 0 100U 100U
Q2 4 2 20 QINP2
Q3 7 2 21 QINN1
V1 7 22 DC 1.00
Q4 22 20 23 QINN1
Q5 24 21 23 QINP2
V2 24 4 DC 1.00
*
Q6 31 34 23 QINN2
Q7 32 36 23 QINP1
Q8 7 35 36 QINN2
Q9 4 35 34 QINP1
G8 35 0 POLY(2) 52 0 53 0 0 100U 100U
E1 3 35 POLY(2) 54 0 55 0 1.55M 1.00 1.00
C6 3 0 1.00P
*
* GAIN STAGE
*
D5 7 30 DY
G5 30 31 POLY(1) 30 31 0 1.00
R5 7 31 450
V3 7 40 DC 1.75
D7 41 40 DX
C8 7 41 7.00P
G10 7 41 POLY(3) 7 41 7 31 30 31 0 574N 2.22M 250M 0 4.78U 538U
C11 31 43 400F
G12 7 43 POLY(1) 7 31 0 2.22M
C12 43 0 800F
*
G6 32 33 POLY(1) 32 33 0 1.00
D6 33 4 DY
R6 32 4 450
D8 42 41 DX
V4 42 4 DC 1.75
C10 41 4 7.00P
G11 41 4 POLY(3) 41 4 32 4 32 33 0 1.33U 2.22M 250M 0 11.1U 1.25M
C13 32 44 800F
G13 44 4 POLY(1) 32 4 0 8.00M
C14 44 0 400F
*
C9 5 0 1.00P
R7 5 41 25.0
*
* OUTPUT STAGE
*
Q10 4 41 43 QOUTP1 2.00
Q11 7 41 44 QOUTN1 2.00
Q12 7 43 6 QOUTN2
C15 6 0 1.00P
Q13 4 44 6 QOUTP2
D9 41 6 DY
D10 6 41 DY
*
* NOISE BLOCKS
*
G14 51 50 POLY(1) 14 0 8.09U 4.05U
D11 50 0 DN1
D12 0 51 DN1
*
G15 53 52 POLY(1) 14 0 8.09U 4.05U
D13 52 0 DN2
D14 0 53 DN2
*
G16 55 54 POLY(1) 14 0 2.71U 1.35U
D15 54 0 DN3
D16 0 55 DN3
*
* MODELS
*
.MODEL DN1 D IS=0.166F KF=19.6U AF=3.00
.MODEL DN2 D IS=0.166F KF=18.2U AF=3.00
.MODEL DN3 D IS=0.166F KF=1.07F AF=1.00
.MODEL DX D TT=100N
.MODEL DY D IS=4.11E-16 RS=1.00
.MODEL DZ D IS=3.07E-17 RS=1.00
*
.MODEL QINN1 NPN
+ IS =5.800E-16 BF =3.239E+02  NF =1.000E+00 VAF=4.229E+01
+ IKF=6.700E-02 ISE=8.000E-17  NE =1.197E+00 BR =4.003E+01
+ NR =1.000E+00 VAR=1.696E+00  IKR=1.000E-01 ISC=4.000E-19
+ NC =1.700E+00 RB =1.843E+01  IRB=0.000E+00 RBM=4.083E+00
+ RE =2.100E-01 RC =1.000E+01  CJE=4.300E-13 VJE=7.973E-01
+ MJE=4.950E-01 TF =1.862E-11  XTF=1.873E+01 VTF=2.825E+00
+ ITF=1.651E-01 PTF=0.000E+00  CJC=3.500E-13 VJC=8.046E-01
+ MJC=4.931E-01 XCJC=1.778E-01 TR =7.000E-10 CJS=1.600E-12
+ VJS=5.723E-01 MJS=0.000E+00  FC =9.765E-01
*
.MODEL QINN2 NPN
+ IS =5.800E-16 BF =2.939E+02  NF =1.000E+00 VAF=3.279E+01
+ IKF=6.700E-02 ISE=8.000E-17  NE =1.197E+00 BR =4.003E+01
+ NR =1.000E+00 VAR=1.696E+00  IKR=1.000E-01 ISC=4.000E-19
+ NC =1.700E+00 RB =1.843E+01  IRB=0.000E+00 RBM=4.083E+00
+ RE =2.100E-01 RC =1.000E+01  CJE=4.300E-13 VJE=7.973E-01
+ MJE=4.950E-01 TF =1.862E-11  XTF=1.873E+01 VTF=2.825E+00
+ ITF=1.651E-01 PTF=0.000E+00  CJC=3.500E-13 VJC=8.046E-01
+ MJC=4.931E-01 XCJC=1.778E-01 TR =7.000E-10 CJS=1.600E-12
+ VJS=5.723E-01 MJS=0.000E+00  FC =9.765E-01
*
.MODEL QOUTN1 NPN
+ IS =3.954E-16 BF =3.239E+02  NF =1.000E+00 VAF=8.457E+01
+ IKF=4.590E-02 ISE=5.512E-17  NE =1.197E+00 BR =3.957E+01
+ NR =1.000E+00 VAR=1.696E+00  IKR=7.392E-02 ISC=2.867E-19
+ NC =1.700E+00 RB =3.645E+01  IRB=0.000E+00 RBM=8.077E+00
+ RE =3.010E-01 RC =2.438E+01  CJE=2.962E-13 VJE=7.973E-01
+ MJE=4.950E-01 TF =1.875E-11  XTF=1.873E+01 VTF=2.825E+00
+ ITF=1.110E-01 PTF=0.000E+00  CJC=2.608E-13 VJC=8.046E-01
+ MJC=4.931E-01 XCJC=1.704E-01 TR =5.832E-10 CJS=4.115E-13
+ VJS=5.723E-01 MJS=4.105E-01  FC =9.765E-01
*
.MODEL QOUTN2 NPN
+ IS =1.880E-15 BF =3.239E+02  NF =1.000E+00 VAF=8.457E+01
+ IKF=2.182E-01 ISE=2.620E-16  NE =1.197E+00 BR =4.090E+01
+ NR =1.000E+00 VAR=1.696E+00  IKR=3.513E-01 ISC=1.229E-18
+ NC =1.700E+00 RB =7.668E+00  IRB=0.000E+00 RBM=1.699E+00
+ RE =5.063E+00 RC =3.371E+00  CJE=1.408E-12 VJE=7.973E-01
+ MJE=4.950E-01 TF =1.838E-11  XTF=1.873E+01 VTF=2.825E+00
+ ITF=5.278E-01 PTF=0.000E+00  CJC=1.095E-12 VJC=8.046E-01
+ MJC=4.931E-01 XCJC=1.930E-01 TR =1.296E-09 CJS=1.217E-12
+ VJS=5.723E-01 MJS=4.105E-01  FC =9.765E-01
*
.MODEL QINP1 PNP
+ IS =3.500E-16 BF =7.165E+01  NF =1.000E+00 VAF=1.720E+01
+ IKF=4.120E-02 ISE=1.750E-15  NE =1.366E+00 BR =1.970E+01
+ NR =1.000E+00 VAR=1.805E+00  IKR=3.600E-01 ISC=9.877E-18
+ NC =1.634E+00 RB =7.797E+00  IRB=0.000E+00 RBM=1.915E+00
+ RE =2.260E-01 RC =1.500E+01  CJE=4.300E-13 VJE=7.975E-01
+ MJE=5.000E-01 TF =3.032E-11  XTF=5.386E+00 VTF=2.713E+00
+ ITF=1.374E-01 PTF=0.000E+00  CJC=5.600E-13 VJC=7.130E-01
+ MJC=4.200E-01 XCJC=1.778E-01 TR =1.605E-09 CJS=1.600E-12
+ VJS=6.691E-01 MJS=0.000E+00  FC =8.803E-01
*
.MODEL QINP2 PNP
+ IS =3.500E-16 BF =6.565E+01  NF =1.000E+00 VAF=1.370E+01
+ IKF=4.120E-02 ISE=1.750E-15  NE =1.366E+00 BR =1.970E+01
+ NR =1.000E+00 VAR=1.805E+00  IKR=3.600E-01 ISC=9.877E-18
+ NC =1.634E+00 RB =7.797E+00  IRB=0.000E+00 RBM=1.915E+00
+ RE =2.260E-01 RC =1.500E+01  CJE=4.300E-13 VJE=7.975E-01
+ MJE=5.000E-01 TF =3.032E-11  XTF=5.386E+00 VTF=2.713E+00
+ ITF=1.374E-01 PTF=0.000E+00  CJC=5.600E-13 VJC=7.130E-01
+ MJC=4.200E-01 XCJC=1.778E-01 TR =1.605E-09 CJS=1.600E-12
+ VJS=6.691E-01 MJS=0.000E+00  FC =8.803E-01
*
.MODEL QOUTP1 PNP
+ IS =2.399E-16 BF =7.165E+01  NF =1.000E+00 VAF=3.439E+01
+ IKF=3.509E-02 ISE=1.190E-15  NE =1.366E+00 BR =1.946E+01
+ NR =1.000E+00 VAR=1.805E+00  IKR=2.464E-01 ISC=6.685E-18
+ NC =1.634E+00 RB =1.542E+01  IRB=0.000E+00 RBM=3.788E+00
+ RE =3.281E-01 RC =1.420E+01  CJE=2.962E-13 VJE=7.975E-01
+ MJE=5.000E-01 TF =3.051E-11  XTF=5.386E+00 VTF=2.713E+00
+ ITF=9.481E-02 PTF=0.000E+00  CJC=4.131E-13 VJC=7.130E-01
+ MJC=4.200E-01 XCJC=1.704E-01 TR =1.388E-09 CJS=9.092E-13
+ VJS=6.691E-01 MJS=3.950E-01  FC =8.803E-01
*
.MODEL QOUTP2 PNP
+ IS =1.140E-15 BF =1.401E+02  NF =1.000E+00 VAF=3.439E+01
+ IKF=1.668E-01 ISE=5.655E-15  NE =1.366E+00 BR =2.009E+01
+ NR =1.000E+00 VAR=1.805E+00  IKR=1.171E+00 ISC=3.141E-17
+ NC =1.634E+00 RB =3.245E+00  IRB=0.000E+00 RBM=7.970E-01
+ RE =5.069E+00 RC =5.381E+00  CJE=1.408E-12 VJE=7.975E-01
+ MJE=5.000E-01 TF =3.013E-11  XTF=5.386E+00 VTF=2.713E+00
+ ITF=4.506E-01 PTF=0.000E+00  CJC=1.734E-12 VJC=7.130E-01
+ MJC=4.200E-01 XCJC=1.929E-01 TR =2.704E-09 CJS=2.020E-12
+ VJS=6.691E-01 MJS=3.950E-01  FC =8.803E-01
*
.ENDS CLC426
**********
*SRC=CLC428;CLC428;Opamps;Comlinear;Transimpedance
*SYM=HA5101
* CLC428 Macromodel Net List--- Subcircuit Format (MMD.05)
*
*   This is an Ultra Low Noise, Wideband, Dual Monolithic Voltage
*   Feedback Op Amp
*
* Version 1, Rev. A, Date 05-23-94, by KEB
*
* Connections: Non-Inverting Input
*              | Inverting
*              | | Output
*              | | | +Vcc
*              | | | | -Vee
*              | | | | |
.SUBCKT CLC428 3 2 1 8 4
*
***  For the other 1/2 of the CLC428, use the call line
* .SUBCKT CLC428 5 6 7 8 4
*
* BIAS CIRCUITRY
*
G1 8 4 POLY(1) 8 4 -1.35M 15.0U
*
G2 8 10 POLY(2) 8 4 8 10 538U 7.00U 1.39U
C1 10 0 800F
G7 8 25 POLY(2) 8 4 8 25 538U 7.00U 1.39U
C4 25 0 800F
*
G4 11 4 POLY(2) 8 4 11 4 1.09M 20.0U 400N
C3 11 0 400F
G9 27 4 POLY(2) 8 4 27 4 1.09M 20.0U 400N
C6 27 0 400F
*
* INPUT STAGE
*
C2 2 0 1.00P
G3 2 0 POLY(2) 40 0 41 0 0 1.00M 1.00M
Q1 4 2 10 QINP1
Q2 8 2 11 QINN1
V1 8 12 DC 1.00
Q3 12 10 13 QINN1
Q4 14 11 13 QINP1
V2 14 4 DC 1.00
*
R1 13 22 33.3
*
Q5 21 25 22 QINN2
Q6 23 27 22 QINP2
Q7 8 26 27 QINN2
Q8 4 26 25 QINP2
G8 26 0 POLY(2) 42 0 43 0 0 1.00M 1.00M
E1 3 26 POLY(2) 44 0 45 0 -600U 1.00 1.00
C5 3 0 1.00P
*
* GAIN STAGE
*
D1 8 20 DY
G5 20 21 POLY(1) 20 21 0 1.00
R2 8 21 450
V3 8 30 DC 1.75
D3 31 30 DX
C7 8 31 6.00P
G10 8 31 POLY(3) 8 31 8 21 20 21 0 574N 2.22M 250M 0 4.78U 538U
C8 21 33 400F
G12 8 33 POLY(1) 8 21 0 2.22M
C11 33 0 800F
*
G6 23 24 POLY(1) 23 24 0 1.00
D2 24 4 DY
R3 23 4 450
D4 32 31 DX
V4 32 4 DC 1.75
C10 31 4 6.00P
G11 31 4 POLY(3) 31 4 23 4 23 24 0 1.33U 2.22M 250M 0 11.1U 1.25M
C9 23 34 800F
G13 34 4 POLY(1) 23 4 0 8.00M
C13 34 0 400F
*
* OUTPUT STAGE
*
C12 31 0 1.00P
Q9 4 31 33 QOUTP1 2.00
Q10 8 31 34 QOUTN1 2.00
Q11 8 33 1 QOUTN2
C14 1 0 1.00P
Q12 4 34 1 QOUTP2
D5 31 1 DY
D6 1 31 DY
*
* NOISE BLOCKS
*
I1 41 40 DC 356U
D7 40 0 DN1
D8 0 41 DN1
*
I2 43 42 DC 459U
D9 42 0 DN2
D10 0 43 DN2
*
I3 45 44 DC 198U
D11 44 0 DN3
D12 0 45 DN3
*
* MODELS
*
.MODEL DN1 D IS=0.166F KF=61.0F AF=1.00
.MODEL DN2 D IS=0.166F KF=74.0F AF=1.00
.MODEL DN3 D IS=0.166F KF=1.52F AF=1.00
.MODEL DX D TT=100N
.MODEL DY D IS=4.11E-16 RS=1.00
.MODEL DZ D IS=3.07E-17 RS=1.00
*
.MODEL QINN1 NPN
+ IS =5.800E-16 BF =3.239E+02  NF =1.000E+00 VAF=4.229E+01
+ IKF=6.700E-02 ISE=8.000E-17  NE =1.197E+00 BR =4.003E+01
+ NR =1.000E+00 VAR=1.696E+00  IKR=1.000E-01 ISC=4.000E-19
+ NC =1.700E+00 RB =1.843E+01  IRB=0.000E+00 RBM=4.083E+00
+ RE =2.100E-01 RC =1.000E+01  CJE=4.300E-13 VJE=7.973E-01
+ MJE=4.950E-01 TF =1.862E-11  XTF=1.873E+01 VTF=2.825E+00
+ ITF=1.651E-01 PTF=0.000E+00  CJC=3.500E-13 VJC=8.046E-01
+ MJC=4.931E-01 XCJC=1.778E-01 TR =7.000E-10 CJS=1.600E-12
+ VJS=5.723E-01 MJS=0.000E+00  FC =9.765E-01
*
.MODEL QINN2 NPN
+ IS =5.800E-16 BF =2.939E+02  NF =1.000E+00 VAF=3.279E+01
+ IKF=6.700E-02 ISE=8.000E-17  NE =1.197E+00 BR =4.003E+01
+ NR =1.000E+00 VAR=1.696E+00  IKR=1.000E-01 ISC=4.000E-19
+ NC =1.700E+00 RB =1.843E+01  IRB=0.000E+00 RBM=4.083E+00
+ RE =2.100E-01 RC =1.000E+01  CJE=4.300E-13 VJE=7.973E-01
+ MJE=4.950E-01 TF =1.862E-11  XTF=1.873E+01 VTF=2.825E+00
+ ITF=1.651E-01 PTF=0.000E+00  CJC=3.500E-13 VJC=8.046E-01
+ MJC=4.931E-01 XCJC=1.778E-01 TR =7.000E-10 CJS=1.600E-12
+ VJS=5.723E-01 MJS=0.000E+00  FC =9.765E-01
*
.MODEL QOUTN1 NPN
+ IS =3.954E-16 BF =3.239E+02  NF =1.000E+00 VAF=8.457E+01
+ IKF=4.590E-02 ISE=5.512E-17  NE =1.197E+00 BR =3.957E+01
+ NR =1.000E+00 VAR=1.696E+00  IKR=7.392E-02 ISC=2.867E-19
+ NC =1.700E+00 RB =3.645E+01  IRB=0.000E+00 RBM=8.077E+00
+ RE =3.010E-01 RC =2.438E+01  CJE=2.962E-13 VJE=7.973E-01
+ MJE=4.950E-01 TF =1.875E-11  XTF=1.873E+01 VTF=2.825E+00
+ ITF=1.110E-01 PTF=0.000E+00  CJC=2.608E-13 VJC=8.046E-01
+ MJC=4.931E-01 XCJC=1.704E-01 TR =5.832E-10 CJS=4.115E-13
+ VJS=5.723E-01 MJS=4.105E-01  FC =9.765E-01
*
.MODEL QOUTN2 NPN
+ IS =1.880E-15 BF =3.239E+02  NF =1.000E+00 VAF=8.457E+01
+ IKF=2.182E-01 ISE=2.620E-16  NE =1.197E+00 BR =4.090E+01
+ NR =1.000E+00 VAR=1.696E+00  IKR=3.513E-01 ISC=1.229E-18
+ NC =1.700E+00 RB =7.668E+00  IRB=0.000E+00 RBM=1.699E+00
+ RE =5.063E+00 RC =3.371E+00  CJE=1.408E-12 VJE=7.973E-01
+ MJE=4.950E-01 TF =1.838E-11  XTF=1.873E+01 VTF=2.825E+00
+ ITF=5.278E-01 PTF=0.000E+00  CJC=1.095E-12 VJC=8.046E-01
+ MJC=4.931E-01 XCJC=1.930E-01 TR =1.296E-09 CJS=1.217E-12
+ VJS=5.723E-01 MJS=4.105E-01  FC =9.765E-01
*
.MODEL QINP1 PNP
+ IS =3.500E-16 BF =7.165E+01  NF =1.000E+00 VAF=1.720E+01
+ IKF=4.120E-02 ISE=1.750E-15  NE =1.366E+00 BR =1.970E+01
+ NR =1.000E+00 VAR=1.805E+00  IKR=3.600E-01 ISC=9.877E-18
+ NC =1.634E+00 RB =7.797E+00  IRB=0.000E+00 RBM=1.915E+00
+ RE =2.260E-01 RC =1.500E+01  CJE=4.300E-13 VJE=7.975E-01
+ MJE=5.000E-01 TF =3.032E-11  XTF=5.386E+00 VTF=2.713E+00
+ ITF=1.374E-01 PTF=0.000E+00  CJC=5.600E-13 VJC=7.130E-01
+ MJC=4.200E-01 XCJC=1.778E-01 TR =1.605E-09 CJS=1.600E-12
+ VJS=6.691E-01 MJS=0.000E+00  FC =8.803E-01
*
.MODEL QINP2 PNP
+ IS =3.500E-16 BF =6.565E+01  NF =1.000E+00 VAF=1.370E+01
+ IKF=4.120E-02 ISE=1.750E-15  NE =1.366E+00 BR =1.970E+01
+ NR =1.000E+00 VAR=1.805E+00  IKR=3.600E-01 ISC=9.877E-18
+ NC =1.634E+00 RB =7.797E+00  IRB=0.000E+00 RBM=1.915E+00
+ RE =2.260E-01 RC =1.500E+01  CJE=4.300E-13 VJE=7.975E-01
+ MJE=5.000E-01 TF =3.032E-11  XTF=5.386E+00 VTF=2.713E+00
+ ITF=1.374E-01 PTF=0.000E+00  CJC=5.600E-13 VJC=7.130E-01
+ MJC=4.200E-01 XCJC=1.778E-01 TR =1.605E-09 CJS=1.600E-12
+ VJS=6.691E-01 MJS=0.000E+00  FC =8.803E-01
*
.MODEL QOUTP1 PNP
+ IS =2.399E-16 BF =7.165E+01  NF =1.000E+00 VAF=3.439E+01
+ IKF=3.509E-02 ISE=1.190E-15  NE =1.366E+00 BR =1.946E+01
+ NR =1.000E+00 VAR=1.805E+00  IKR=2.464E-01 ISC=6.685E-18
+ NC =1.634E+00 RB =1.542E+01  IRB=0.000E+00 RBM=3.788E+00
+ RE =3.281E-01 RC =1.420E+01  CJE=2.962E-13 VJE=7.975E-01
+ MJE=5.000E-01 TF =3.051E-11  XTF=5.386E+00 VTF=2.713E+00
+ ITF=9.481E-02 PTF=0.000E+00  CJC=4.131E-13 VJC=7.130E-01
+ MJC=4.200E-01 XCJC=1.704E-01 TR =1.388E-09 CJS=9.092E-13
+ VJS=6.691E-01 MJS=3.950E-01  FC =8.803E-01
*
.MODEL QOUTP2 PNP
+ IS =1.140E-15 BF =1.401E+02  NF =1.000E+00 VAF=3.439E+01
+ IKF=1.668E-01 ISE=5.655E-15  NE =1.366E+00 BR =2.009E+01
+ NR =1.000E+00 VAR=1.805E+00  IKR=1.171E+00 ISC=3.141E-17
+ NC =1.634E+00 RB =3.245E+00  IRB=0.000E+00 RBM=7.970E-01
+ RE =5.069E+00 RC =5.381E+00  CJE=1.408E-12 VJE=7.975E-01
+ MJE=5.000E-01 TF =3.013E-11  XTF=5.386E+00 VTF=2.713E+00
+ ITF=4.506E-01 PTF=0.000E+00  CJC=1.734E-12 VJC=7.130E-01
+ MJC=4.200E-01 XCJC=1.929E-01 TR =2.704E-09 CJS=2.020E-12
+ VJS=6.691E-01 MJS=3.950E-01  FC =8.803E-01
*
.ENDS CLC428
**********
*SRC=CLC431;CLC431;Opamps;Comlinear;Transimpedance
*SYM=CLC431
* CLC431 Macromodel Net List--- Subcircuit Format (MMD.05)
*
*   This is a Dual Wideband Monolithic Current Feedback
*   Op Amp with Disable and High Slew Rate
*
* Version 1, Rev. A, Date 06-30-94, by KEB
*
* Connections: Non-Inverting Input
*              | Inverting
*              | | Output
*              | | |  +Vcc
*              | | |  |  -Vee
*              | | |  |  | DIS
*              | | |  |  | | DIS_bar
*              | | |  |  | | |  VR_TTL
*              | | |  |  | | |  |
.SUBCKT CLC431 2 1 14 11 4 3 12 13
*
* DISABLE BLOCK
*
D1 11 20 DX
R1 20 3 100K
C1 3 0 1.00P
*
R4 11 12 100K
C2 12 0 1.00P
D4 12 26 DX
D5 26 13 DX
R7 13 0 1.00G
C3 13 0 1.00P
*
R2 3 21 5.00K
Q1 11 21 22 QDG
R3 22 23 150
D2 24 21 DW
D3 21 24 DW
R5 24 12 5.00K
Q2 11 24 25 QDG
R6 25 23 150
C4 23 0 5.50P
G1 23 4 POLY(1) 11 4 118U 195N
*
* BIAS BLOCK
*
E1 27 0 POLY(1) 25 23 685M 1.00K
R8 27 0 1.00K
D6 27 28 DY
I1 28 0 DC 100U
C5 28 0 2.80P
G2 11 30 POLY(3) 28 0 11 34 11 30 0 2.06U 2.70M 70.2N
C6 30 0 822F
C7 30 34 368F
G4 36 4 POLY(3) 28 0 33 4 36 4 0 2.06U 2.70M 18.4N
C11 36 0 608F
C10 33 36 493F
*
* INPUT STAGE
*
C8 2 14 320F
C9 2 0 1.00P
E2 2 32 POLY(2) 70 0 71 0 0 1.00 1.00
G3 32 0 POLY(2) 72 0 73 0 0 1.00M 1.00M
*
D7 30 31 DX 3.00
Q3 33 32 31 QINP
R9 33 4 325
*
R10 11 34 350
Q4 34 32 35 QINN
D8 35 36 DX 3.00
*
G5 41 0 POLY(2) 74 0 75 0 0 1.00M 1.00M
Q5 41 30 42 QINN
R12 30 42 100K
D9 42 1 DX 3.00
C12 1 14 260F
C13 1 0 3.00P
D10 1 43 DX 3.00
R13 43 36 100K
Q6 44 36 43 QINP
*
* GAIN STAGE
*
R11 11 40 600
V1 40 41 1.30
V3 11 50 1.50
D11 51 50 DOR
G6 11 51 POLY(2) 11 40 11 51 0 5.00M 318N
C14 41 51 387F
G8 11 60 POLY(1) 11 40 0 8.33M
C17 41 60 387F
C18 60 0 780F
C21 41 14 850F
*
R14 45 4 600
V2 44 45 1.30
V4 52 4 1.50
D12 52 51 DOR
G7 51 4 POLY(2) 45 4 51 4 0 5.00M 125N
C16 44 51 305F
G9 61 4 POLY(1) 45 4 0 8.33M
C19 44 61 305F
C20 61 0 353F
C23 44 14 850F
*
* OUTPUT STAGE
*
C15 51 0 1.11P
Q7 4 51 60 QOUTP1
Q8 11 51 61 QOUTN1
D13 51 14 DX 4.00
D14 14 51 DX 4.00
Q9 11 60 14 QOUTN2
Q10 4 61 14 QOUTP2 2.00
C22 14 0 1.98P
*
* NOISE BLOCKS
*
I2 71 70 DC 69.1U
D15 70 0 DN1
D16 0 71 DN1
*
I3 73 72 DC 186U
D17 72 0 DN2
D18 0 73 DN2
*
I4 75 74 DC 6.15U
D19 74 0 DN3
D20 0 75 DN3
*
* MODELS
*
.MODEL DN1 D IS=0.166F KF=4.48F AF=1.00
.MODEL DN2 D IS=0.166F KF=27.4F AF=1.00
.MODEL DN3 D IS=0.166F KF=23.6F AF=1.00
.MODEL DOR D TT=10.0U
.MODEL DW D IS=0.269F N=2.00 RS=2.01K
.MODEL DX D IS=0.269F RS=5.28 CJO=242F M=287M VJ=653M TT=515P
.MODEL DY D IS=0.269F RS=5.28
*
.MODEL QDG NPN
+ IS =2.330E-16 BF =2.053E+02 NF =1.000E+00 VAF=3.281E+02
+ IKF=6.311E-03 ISE=1.033E-16 NE =1.263E+00 BR =3.821E-01
+ NR =1.000E+00 VAR=2.335E+00 IKR=2.198E-03 ISC=0.000E+00
+ NC =2.000E+00 RB =1.625E+02 IRB=0.000E+00 RBM=1.250E+01
+ RE =3.392E+00 RC =8.000E+01 CJE=2.428E-13 VJE=6.534E-01
+ MJE=2.873E-01 TF =5.146E-10 XTF=2.472E+01 VTF=1.959E+00
+ ITF=2.429E-02 PTF=0.000E+00 CJC=2.970E-13 VJC=6.669E-01
+ MJC=4.051E-01 XCJC=5.00E-03 TR =1.550E-09 CJS=5.491E-13
+ VJS=5.253E-01 MJS=3.708E-01 FC =9.476E-01
*
.MODEL QINN NPN
+ IS =8.063E-16 BF =2.053E+02  NF =1.000E+00 VAF=1.640E+02
+ IKF=1.893E-02 ISE=3.099E-16  NE =1.263E+00 BR =4.649E-01
+ NR =1.000E+00 VAR=2.335E+00  IKR=6.594E-03 ISC=0.000E+00
+ NC =2.000E+00 RB =7.917E+01  IRB=0.000E+00 RBM=2.917E+01
+ RE =1.131E+00 RC =3.294E+01  CJE=7.284E-13 VJE=6.534E-01
+ MJE=2.873E-01 TF =5.140E-10  XTF=2.472E+01 VTF=1.959E+00
+ ITF=7.287E-02 PTF=0.000E+00  CJC=7.387E-13 VJC=6.669E-01
+ MJC=4.051E-01 XCJC=2.603E-01 TR =1.550E-09 CJS=2.438E-12
+ VJS=5.253E-01 MJS=0.000E+00  FC =9.476E-01
*
.MODEL QOUTN1 NPN
+ IS =3.495E-15 BF =2.053E+02  NF =1.000E+00 VAF=3.281E+02
+ IKF=9.466E-02 ISE=1.550E-15  NE =1.263E+00 BR =6.484E-01
+ NR =1.000E+00 VAR=2.335E+00  IKR=3.297E-02 ISC=0.000E+00
+ NC =2.000E+00 RB =1.083E+01  IRB=0.000E+00 RBM=8.333E-01
+ RE =2.261E-01 RC =1.249E+01  CJE=3.642E-12 VJE=6.534E-01
+ MJE=2.873E-01 TF =5.131E-10  XTF=2.472E+01 VTF=1.959E+00
+ ITF=3.644E-01 PTF=0.000E+00  CJC=2.697E-12 VJC=6.669E-01
+ MJC=4.051E-01 XCJC=3.565E-01 TR =3.410E-09 CJS=1.823E-12
+ VJS=5.253E-01 MJS=3.708E-01  FC =9.476E-01
*
.MODEL QOUTN2 NPN
+ IS =4.660E-15 BF =2.053E+02  NF =1.000E+00 VAF=3.281E+02
+ IKF=1.262E-01 ISE=2.066E-15  NE =1.263E+00 BR =6.767E-01
+ NR =1.000E+00 VAR=2.335E+00  IKR=4.396E-02 ISC=0.000E+00