**********
* Spice Opamp Models Developed by Comlinear Corporation
* September 1993. 
**********
*SRC=CLC400;CLC400;Opamps;Comlinear;Transimpedance
*SYM=CL400
*CLC400 subcircuit net list
* Definition of pin nodes.
*              Non-Inverting Input
*              | Inverting Input
*              | | Output
*              | | | +Vcc
*              | | | | -Vee
*              | | | | | Offset voltage
*              | | | | | |
* CLC400 Macromodel Net List--- Subcircuit Format (MMD.06)
*
*   This is a Wideband, Low Gain Monolithic Current Feedback
*   Op Amp with Fast Settling, (.05% in 12nS), Low Power and
*   an Input Offset Adjustment Pin.
*
* Version 1, Rev. B, Date 03-16-92, By KEB
*
* Connections: Non-Inverting Input
*              | Inverting Input
*              | | Output
*              | | | +Vcc
*              | | | | -Vee
*              | | | | | Offset voltage
*              | | | | | |
.SUBCKT CLC400 3 2 6 7 4 1
*
* DC BIAS MIRROR
*
R3 7 10 1.1K
R4 10 11 20.1K
R1 1 11 15.0K
R2 1 0 10.0M
R5 11 12 20.1K
R6 12 4 1.1K
*
G1 7 13 POLY(1) 7 10 0 2.62M
C1 13 0 1.46P
*
G2 19 4 POLY(1) 12 4 0 2.43M
C2 19 0 1.24P
*
* INPUT VOLTAGE BUFFER
*
E1 3 16 POLY(1) 37 0 0 1.76
C3 16 0 1.00P
*
R7 16 15 50.0
Q1 4 15 14 QINP
R9 14 13 50
R8 16 17 50.0
Q2 7 17 18 QINN
R10 18 19 50
*
G3 2 0 POLY(1) 36 0 0 9.10M
C14 2 0 2.5P
*
R14 2 24 50
Q3 23 20 24 QINN
R11 13 20 50.0
*
R15 2 25 50
Q4 26 21 25 QINP
R12 19 21 50.0
*
* CURRENT MIRROR GAIN BLOCKS
*
R13 7 22 445
V1 22 23 2.20
C5 23 0 447F
C6 23 30 221F
G4 7 30 POLY(1) 7 22 0 8.52M
D1 30 28 DX
V3 7 28 1.7
G6 7 31 POLY(1) 7 22 0 10.9M
*
R16 27 4 445
V2 26 27 2.00
C4 26 0 223F
C7 26 30 130F
G5 30 4 POLY(1) 27 4 0 8.76M
D2 29 30 DX
V4 29 4 1.7
G7 32 4 POLY(1) 27 4 0 10.8M
*
* OUTPUT STAGE AND COMPENSATION CAPACITORS
*
C9 30 0 651F
R17 30 0 57.7K
*
C8 23 31 1.33P
Q5 4 30 31 QOUTP1
C10 26 32 1.33P
Q6 7 30 32 QOUTN1
*
C11 31 0 2.48P
R18 31 33 100
Q7 7 33 34 QOUTN2
C13 32 0 2.21P
R19 32 35 100
Q8 4 35 34 QOUTP2
*
C12 34 0 1.00P
R20 34 6 8
*
* NOISE BLOCKS
*
R23 37 0 122
R24 37 0 122
*
R21 36 0 122
R22 36 0 122
*
* MODELS
*
.MODEL DX D TT=10N
*
.MODEL QINN NPN
+ IS =0.166F    BF =3.239E+02  NF =1.000E+00 VAF=8.457E+01
+ IKF=2.462E-02 ISE=2.956E-17  NE =1.197E+00 BR =3.719E+01
+ NR =1.000E+00 VAR=1.696E+00  IKR=3.964E-02 ISC=1.835E-19
+ NC =1.700E+00 RB =6.796E+01  IRB=0.000E+00 RBM=1.506E+01
+ RE =5.613E-01 RC =2.645E+01  CJE=1.588E-13 VJE=7.973E-01
+ MJE=4.950E-01 TF =1.948E-11  XTF=1.873E+01 VTF=2.825E+00
+ ITF=5.955E-02 PTF=0.000E+00  CJC=1.720E-13 VJC=8.046E-01
+ MJC=4.931E-01 XCJC=1.386E-01 TR =4.212E-10 CJS=3.938E-13
+ VJS=5.723E-01 MJS=4.105E-01  KF =2.00P     AF =1.000E+00
+ FC =9.765E-01
*
.MODEL QOUTN1 NPN
+ IS =7.822E-16 BF=3.239E+02   NF =1.000E+00 VAF=8.457E+01
+ IKF=9.079E-02 ISE=1.090E-16  NE =1.197E+00 BR =3.960E+01
+ NR =1.000E+00 VAR=1.696E+00  IKR=1.462E-01 ISC=5.656E-19
+ NC =1.700E+00 RB=1.843E+01   IRB=0.000E+00 RBM=4.083E+00
+ RE =1.522E-01 RC=6.141E+00   CJE=5.858E-13 VJE=7.973E-01
+ MJE=4.950E-01 TF=1.874E-11   XTF=1.873E+01 VTF=2.825E+00
+ ITF=2.196E-01 PTF=0.000E+00  CJC=5.143E-13 VJC=8.046E-01
+ MJC=4.931E-01 XCJC=1.709E-01 TR =1.069E-09 CJS=8.567E-13
+ VJS=5.723E-01 MJS=4.105E-01  KF =2.00P     AF =1.000E+00
+ FC =9.765E-01
*
.MODEL QOUTN2 NPN
+ IS =1.880E-15 BF=3.239E+02   NF =1.000E+00 VAF=8.457E+01
+ IKF=2.182E-01 ISE=2.620E-16  NE =1.197E+00 BR =3.971E+01
+ NR =1.000E+00 VAR=1.696E+00  IKR=3.513E-01 ISC=1.348E-18
+ NC =1.700E+00 RB=7.668E+00   IRB=0.000E+00 RBM=1.699E+00
+ RE =6.333E-02 RC=3.738E+00   CJE=1.408E-12 VJE=7.973E-01
+ MJE=4.950E-01 TF=1.871E-11   XTF=1.873E+01 VTF=2.825E+00
+ ITF=5.278E-01 PTF=0.000E+00  CJC=1.224E-12 VJC=8.046E-01
+ MJC=4.931E-01 XCJC=1.726E-01 TR =1.296E-09 CJS=1.496E-12
+ VJS=5.723E-01 MJS=4.105E-01  KF =2.00P     AF =1.000E+00
+ FC =9.765E-01
*
.MODEL QINP PNP
+ IS =0.166F    BF=7.165E+01   NF =1.000E+00 VAF=3.439E+01
+ IKF=1.882E-02 ISE=6.380E-16  NE =1.366E+00 BR =1.833E+01
+ NR =1.000E+00 VAR=1.805E+00  IKR=1.321E-01 ISC=3.666E-18
+ NC =1.634E+00 RB=2.876E+01   IRB=0.000E+00 RBM=7.568E+00
+ RE =6.118E-01 RC=3.739E+01   CJE=1.588E-13 VJE=7.975E-01
+ MJE=5.000E-01 TF=3.156E-11   XTF=5.386E+00 VTF=2.713E+00
+ ITF=5.084E-02 PTF=0.000E+00  CJC=2.725E-13 VJC=7.130E-01
+ MJC=4.200E-01 XCJC=1.385E-01 TR =7.500E-11 CJS=7.417E-13
+ VJS=6.691E-01 MJS=3.950E-01  KF =2.00P     AF =1.000E+00
+ FC =8.803E-01
*
.MODEL QOUTP1 PNP
+ IS =4.744E-16 BF=7.165E+01   NF =1.000E+00 VAF=3.439E+01
+ IKF=6.940E-02 ISE=2.353E-15  NE =1.366E+00 BR =1.948E+01
+ NR =1.000E+00 VAR=1.805E+00  IKR=4.873E-01 ISC=1.322E-17
+ NC =1.634E+00 RB=7.797E+00   IRB=0.000E+00 RBM=2.052E+00
+ RE =1.659E-01 RC=1.037E+01   CJE=5.858E-13 VJE=7.975E-01
+ MJE=5.000E-01 TF=3.073E-11   XTF=5.386E+00 VTF=2.713E+00
+ ITF=1.875E-01 PTF=0.000E+00  CJC=8.147E-13 VJC=7.130E-01
+ MJC=4.200E-01 XCJC=1.709E-01 TR =1.450E-10 CJS=1.364E-12
+ VJS=6.691E-01 MJS=3.950E-01  KF =2.00P     AF =1.000E+00
+ FC =8.803E-01
*
.MODEL QOUTP2 PNP
+ IS =1.140E-15 BF=7.165E+01   NF =1.000E+00 VAF=3.439E+01
+ IKF=1.668E-01 ISE=5.655E-15  NE =1.366E+00 BR =1.953E+01
+ NR =1.000E+00 VAR=1.805E+00  IKR=1.171E+00 ISC=3.173E-17
+ NC =1.634E+00 RB=3.245E+00   IRB=0.000E+00 RBM=8.539E-01
+ RE =6.902E-02 RC=6.213E+00   CJE=1.408E-12 VJE=7.975E-01
+ MJE=5.000E-01 TF=3.070E-11   XTF=5.386E+00 VTF=2.713E+00
+ ITF=4.506E-01 PTF=0.000E+00  CJC=1.939E-12 VJC=7.130E-01
+ MJC=4.200E-01 XCJC=1.726E-01 TR =1.850E-10 CJS=2.351E-12
+ VJS=6.691E-01 MJS=3.950E-01  KF =2.00P     AF =1.000E+00
+ FC =8.803E-01
*
.ENDS
**********
*SRC=CLC401;CLC401;Opamps;Comlinear;Transimpedance
*SYM=AMPC5
*CLC401 subcircuit net list
*
* Version 1, Date 03-11-92
*
*Connections   Inverting Input
*              | Non-Inverting Input
*              | | Output
*              | | | +Vcc
*              | | | | -Vee
*              | | | | |
.SUBCKT CLC401  2 3 6 7 4 
*
*
* DC BIAS MIRROR
*
R1 7 9   1112 
R2 9 10  6.27K
R3 10 4  1172 
*
G1 7 12 POLY(1) 7 9    93.4U   .906M
C2 12 0   .37P
*
G2 15 4 POLY(1) 10 4    0  .87M
C3 15 0   .16P
*
* INPUT VOLTAGE BUFFER
*
E1 3 11 POLY(1) 38 0    0  2.16
C51 11 0  750F
*
R5 19 4  1550
V1 13 19 2.2
C15 13 0 203F
Q1 13 11 12 QINP
R6 7  20 1478
V2 20 14 1.65 
C16 14 0 227F
Q2 14 11 15 QINN
Q7 2 2 12 QINP
Q8 2 2 15 QINN
*
G0 2 0 POLY(1) 39 0    0 15.14M
C0 2 0  1.5P
*
* CURRENT MIRROR GAIN BLOCKS
*
G4 16 4 POLY(1) 19 4     0 2.4187M 
G5 17 4 POLY(1) 19 4     0 2.4284M
*
G3 7 16 POLY(1) 7 20     0 2.904M
G6 7 18 POLY(1) 7 20     0 2.5984M 
R7 16 0 730.96K
C6 16 0 840F
*
* OUTPUT STAGE AND COMPENSATION CAPACITORS
*
C4 14 16  100F 
C5 13 16  100F 
*
V3 7 21 1.75
V4 22 4 1.5
D1 16 21 DX
D2 22 16 DX
Q3 7 16 17 QOUTN1
Q4 4 16 18 QOUTP1 0.333
Q5 7 118 46  QOUTN2
R10 46 6   10.0
R11 18 118 100
C12 18 0 1.48p
C13 17 0 1.21p
*
C7 46 0   1.50P
*
R112 17 117 100
Q6 4 117 46 QOUTP4
*
* NOISE BLOCKS
*
R19 38 0  122
R20 38 0  122
*
R21 39 0  122
R22 39 0  122
*
* DIODE MODEL
*
.MODEL DX D TT=10N
*
* TRANSISTOR MODELS
*
.MODEL QINN NPN
+ IS   = 2.121E-16  BF   = 3.239E+02  NF   = 1.000E+00  VAF  = 8.457E+01
+ IKF  = 2.462E-02  ISE  = 2.956E-17  NE   = 1.197E+00  BR   = 3.719E+01
+ NR   = 1.000E+00  VAR  = 1.696E+00  IKR  = 3.964E-02  ISC  = 1.835E-19
+ NC   = 1.700E+00  RB   = 6.796E+01  IRB  = 0.000E+00  RBM  = 1.506E+01
+ RE   = 5.613E-01  RC   = 2.645E+01  CJE  = 1.588E-13  VJE  = 7.973E-01
+ MJE  = 4.950E-01  TF   = 1.948E-11  XTF  = 1.873E+01  VTF  = 2.825E+00
+ ITF  = 5.955E-02  PTF  = 0.000E+00  CJC  = 1.720E-13  VJC  = 8.046E-01
+ MJC  = 4.931E-01  XCJC = 1.386E-01  TR   = 4.212E-10  CJS  = 3.938E-13
+ VJS  = 5.723E-01  MJS  = 4.105E-01  KF   = 2.000E-12   AF   = 1.000E+00
+ FC   = 9.765E-01
*
.MODEL QOUTN1 NPN
+ IS   = 7.822E-16  BF   = 3.239E+02  NF   = 1.000E+00  VAF  = 8.457E+01
+ IKF  = 9.079E-02  ISE  = 1.090E-16  NE   = 1.197E+00  BR   = 3.960E+01
+ NR   = 1.000E+00  VAR  = 1.696E+00  IKR  = 1.462E-01  ISC  = 5.656E-19
+ NC   = 1.700E+00  RB   = 1.843E+01  IRB  = 0.000E+00  RBM  = 4.083E+00
+ RE   = 1.522E-01  RC   = 6.141E+00  CJE  = 5.858E-13  VJE  = 7.973E-01
+ MJE  = 4.950E-01  TF   = 1.874E-11  XTF  = 1.873E+01  VTF  = 2.825E+00
+ ITF  = 2.196E-01  PTF  = 0.000E+00  CJC  = 5.143E-13  VJC  = 8.046E-01
+ MJC  = 4.931E-01  XCJC = 1.709E-01  TR   = 1.069E-09  CJS  = 8.567E-13
+ VJS  = 5.723E-01  MJS  = 4.105E-01  KF   = 2.000E-12   AF  = 1.000E+00
+ FC   = 9.765E-01
*
.MODEL QOUTN2 NPN
+ IS   = 1.880E-15  BF   = 3.239E+02  NF   = 1.000E+00  VAF  = 8.457E+01
+ IKF  = 2.182E-01  ISE  = 2.620E-16  NE   = 1.197E+00  BR   = 3.971E+01
+ NR   = 1.000E+00  VAR  = 1.696E+00  IKR  = 3.513E-01  ISC  = 1.348E-18
+ NC   = 1.700E+00  RB   = 1.076E+02  IRB  = 0.000E+00  RBM  = 1.699E+00
+ RE   = 6.333E-02  RC   = 3.738E+00  CJE  = 1.408E-12  VJE  = 7.973E-01
+ MJE  = 4.950E-01  TF   = 1.871E-11  XTF  = 1.873E+01  VTF  = 2.825E+00
+ ITF  = 5.278E-01  PTF  = 0.000E+00  CJC  = 1.224E-12  VJC  = 8.046E-01
+ MJC  = 4.931E-01  XCJC = 1.726E-01  TR   = 1.296E-09  CJS  = 1.496E-12
+ VJS  = 5.723E-01  MJS  = 4.105E-01  KF   = 2.000E-12   AF  = 1.000E+00
+ FC   = 9.765E-01
*
.MODEL QINP PNP
+ IS   = 1.286E-16  BF   = 7.165E+01  NF   = 1.000E+00  VAF  = 3.439E+01
+ IKF  = 1.882E-02  ISE  = 6.380E-16  NE   = 1.366E+00  BR   = 1.833E+01
+ NR   = 1.000E+00  VAR  = 1.805E+00  IKR  = 1.321E-01  ISC  = 3.666E-18
+ NC   = 1.634E+00  RB   = 2.876E+01  IRB  = 0.000E+00  RBM  = 7.568E+00
+ RE   = 6.118E-01  RC   = 3.739E+01  CJE  = 1.588E-13  VJE  = 7.975E-01
+ MJE  = 5.000E-01  TF   = 3.156E-11  XTF  = 5.386E+00  VTF  = 2.713E+00
+ ITF  = 5.084E-02  PTF  = 0.000E+00  CJC  = 2.725E-13  VJC  = 7.130E-01
+ MJC  = 4.200E-01  XCJC = 1.385E-01  TR   = 7.500E-11  CJS  = 7.417E-13
+ VJS  = 6.691E-01  MJS  = 3.950E-01  KF   = 2.000E-12   AF  = 1.000E+00
+ FC   = 8.803E-01
*
.MODEL QOUTP1 PNP
+ IS   = 4.744E-16  BF   = 7.165E+01  NF   = 1.000E+00  VAF  = 3.439E+01
+ IKF  = 6.940E-02  ISE  = 2.353E-15  NE   = 1.366E+00  BR   = 1.948E+01
+ NR   = 1.000E+00  VAR  = 1.805E+00  IKR  = 4.873E-01  ISC  = 1.322E-17
+ NC   = 1.634E+00  RB   = 7.797E+00  IRB  = 0.000E+00  RBM  = 2.052E+00
+ RE   = 1.659E-01  RC   = 1.037E+01  CJE  = 5.858E-13  VJE  = 7.975E-01
+ MJE  = 5.000E-01  TF   = 3.073E-11  XTF  = 5.386E+00  VTF  = 2.713E+00
+ ITF  = 1.875E-01  PTF  = 0.000E+00  CJC  = 8.147E-13  VJC  = 7.130E-01
+ MJC  = 4.200E-01  XCJC = 1.709E-01  TR   = 1.450E-10  CJS  = 1.364E-12
+ VJS  = 6.691E-01  MJS  = 3.950E-01  KF   = 2.000E-12   AF  = 1.000E+00
+ FC   = 8.803E-01
*
.MODEL QOUTP4 PNP
+ IS   = 1.158E-15  BF   = 7.165E+01  NF   = 1.000E+00  VAF  = 3.439E+01
+ IKF  = 1.694E-01  ISE  = 5.742E-15  NE   = 1.366E+00  BR   = 1.923E+01 
+ NR   = 1.000E+00  VAR  = 1.805E+00  IKR  = 1.189E+00  ISC  = 3.240E-17
+ NC   = 1.634E+00  RB   = 1.031E+02  IRB  = 0.000E+00  RBM  = 8.410E-01 
+ RE   = 6.797E-02  RC   = 8.267E+00  CJE  = 1.430E-12  VJE  = 7.975E-01 
+ MJE  = 5.000E-01  TF   = 3.090E-11  XTF  = 5.386E+00  VTF  = 2.713E+00
+ ITF  = 4.575E-01  PTF  = 0.000E+00  CJC  = 2.083E-12  VJC  = 7.130E-01 
+ MJC  = 4.200E-01  XCJC = 1.631E-01  TR   = 1.150E-10  CJS  = 3.993E-12 
+ VJS  = 6.691E-01  MJS  = 3.950E-01  KF   = 2.000E-12  AF   = 1.000E+00 
+ FC   = 8.803E-01 
*
.MODEL QOUTP3 PNP
+ IS   = 1.140E-15  BF   = 7.165E+01  NF   = 1.000E+00  VAF  = 3.439E+01
+ IKF  = 1.668E-01  ISE  = 5.655E-15  NE   = 1.366E+00  BR   = 1.953E+01
+ NR   = 1.000E+00  VAR  = 1.805E+00  IKR  = 1.171E+00  ISC  = 3.173E-17
+ NC   = 1.634E+00  RB   = 3.245E+00  IRB  = 0.000E+00  RBM  = 8.539E-01
+ RE   = 6.902E-02  RC   = 6.213E+00  CJE  = 1.408E-12  VJE  = 7.975E-01
+ MJE  = 5.000E-01  TF   = 3.070E-11  XTF  = 5.386E+00  VTF  = 2.713E+00
+ ITF  = 4.506E-01  PTF  = 0.000E+00  CJC  = 1.939E-12  VJC  = 7.130E-01
+ MJC  = 4.200E-01  XCJC = 1.726E-01  TR   = 1.850E-10  CJS  = 2.351E-12
+ VJS  = 6.691E-01  MJS  = 3.950E-01  KF   = 2.000E-12  AF   = 1.000E+00
+ FC   = 8.803E-01
*
.ENDS 
**********
*SRC=CLC404;CLC404;Opamps;Comlinear;Transimpedance
*SYM=AMPC5
* OP AMP MACROMODEL FOR THE CLC404
*
* VERSION 1, DATE 04-09-92
*
*CONNECTIONS   Inverting Input
*              | Non-Inverting Input
*              | | Output
*              | | | +Vcc
*              | | | | -Vcc
*              | | | | |
.SUBCKT CLC404  2 3 6 7 4
*
* DC BIAS MIRROR
*
R1 7 4 18.2K
R2 7 9 271
C1 9 0 1.25P
C2 10 0 263F
R3 10 4 335
*
G1 7 11 POLY(2) 7 9 7 4    0 3.02M 21.5U
C3 11 0 648F
*
G2 14 4 POLY(1) 10 4    0 2.76M
C4 14 0 554F
*
* INPUT VOLTAGE BUFFER
*
E1 3 17 POLY(1) 35 0    2.0M  1.48
C6 17 0 1.00P
*
R7 17 15 50.0
Q1 10 15 12 QINP
R4 12 11 38.9
R8 17 16 50.0
Q2 9 16 13 QINN
R5 13 14 33.7
*
G3 2 0 POLY(1) 36 0    0 8.14M
C10 2 0 2.48P
*
R11 2 22 37.6
Q3 21 18 22 QINN
R6 11 18 50.0
*
R12 2 23 38.4
Q4 24 19 23 QINP
R9 14 19 50.0
*
* CURRENT MIRROR GAIN BLOCKS
*
R10 7 20 640
V1 20 21 2.55
C5 21 0 1.30P
C8 21 28 274F
G4 7 28 POLY(1) 7 20    0 4.30M
R15 7 28 102K
C13 28 0 641F
D1 28 26 DX
V3 7 26 1.50
G6 7 30 POLY(1) 7 20    0 2.74M
C15 30 0 676F
*
R13 25 4 640
V2 24 25 2.51
C7 24 0 648F
C12 24 29 160F
G5 29 4 POLY(1) 25 4      0 4.50M
R16 29 4 761K
C14 29 0  312F
D2 27 29 DX
V4 27 4 1.50
G7 31 4 POLY(1) 25 4      0 6.74M
C16 31 0 330F
*
* OUTPUT STAGE AND COMPENSATION CAPACITORS
*
R14 28 29 40.0
Q5 4 29 30 QOUTP1
Q6 7 28 31 QOUTN1
*
C9 21 33 390F
C11 24 33 390F
C17 33 0 5.00P
R19 33 6 10
*
R17 30 32 50.0
Q7 7 32 33 QOUTN2
*
R18 31 34 50.0
Q8 4 34 33 QOUTP2
*
* NOISE BLOCKS
*
R20 35 0 122
R21 35 0 122
*
R22 36 0 122
R23 36 0 122
*
* DIODE MODELS
*
.MODEL DX D TT=200N
*
* TRANSISTOR MODELS
*
.MODEL QINN NPN
+ IS   = 1.660E-16  BF   = 3.239E+02  NF   = 1.000E+00  VAF  = 8.457E+01
+ IKF  = 2.462E-02  ISE  = 2.956E-17  NE   = 1.197E+00  BR   = 3.719E+01
+ NR   = 1.000E+00  VAR  = 1.696E+00  IKR  = 3.964E-02  ISC  = 1.835E-19
+ NC   = 1.700E+00  RB   = 6.796E+01  IRB  = 0.000E+00  RBM  = 1.506E+01
+ RE   = 5.613E-01  RC   = 2.645E+01  CJE  = 1.588E-13  VJE  = 7.973E-01
+ MJE  = 4.950E-01  TF   = 1.948E-11  XTF  = 1.873E+01  VTF  = 2.825E+00
+ ITF  = 5.955E-02  PTF  = 0.000E+00  CJC  = 1.720E-13  VJC  = 8.046E-01
+ MJC  = 4.931E-01  XCJC = 1.386E-01  TR   = 4.212E-10  CJS  = 3.938E-13
+ VJS  = 5.723E-01  MJS  = 4.105E-01  KF   = 2.000E-12  AF   = 1.000E+00
+ FC   = 9.765E-01
*
.MODEL QOUTN1 NPN
+ IS   = 3.954E-16  BF   = 3.239E+02  NF   = 1.000E+00  VAF  = 8.457E+01
+ IKF  = 4.590E-02  ISE  = 5.512E-17  NE   = 1.197E+00  BR   = 3.719E+01
+ NR   = 1.000E+00  VAR  = 1.696E+00  IKR  = 7.392E-02  ISC  = 3.087E-19
+ NC   = 1.700E+00  RB   = 3.645E+01  IRB  = 0.000E+00  RBM  = 8.077E+00
+ RE   = 3.010E-01  RC   = 2.702E+01  CJE  = 2.962E-13  VJE  = 7.973E-01
+ MJE  = 4.950E-01  TF   = 1.904E-11  XTF  = 1.873E+01  VTF  = 2.825E+00
+ ITF  = 1.110E-01  PTF  = 0.000E+00  CJC  = 2.846E-13  VJC  = 8.046E-01
+ MJC  = 4.931E-01  XCJC = 1.562E-01  TR   = 5.832E-10  CJS  = 5.015E-13
+ VJS  = 5.723E-01  MJS  = 4.105E-01  KF   = 2.000E-12  AF   = 1.000E+00
+ FC   = 9.765E-01
*
.MODEL QOUTN2 NPN
+ IS   = 1.898E-15  BF   = 3.239E+02  NF   = 1.000E+00  VAF  = 8.457E+01
+ IKF  = 2.203E-01  ISE  = 2.645E-16  NE   = 1.197E+00  BR   = 3.956E+01
+ NR   = 1.000E+00  VAR  = 1.696E+00  IKR  = 3.547E-01  ISC  = 1.378E-18
+ NC   = 1.700E+00  RB   = 7.592E+00  IRB  = 0.000E+00  RBM  = 1.683E+00
+ RE   = 6.271E-02  RC   = 1.227E+01  CJE  = 1.422E-12  VJE  = 7.973E-01
+ MJE  = 4.950E-01  TF   = 1.875E-11  XTF  = 1.873E+01  VTF  = 2.825E+00
+ ITF  = 5.330E-01  PTF  = 0.000E+00  CJC  = 1.254E-12  VJC  = 8.046E-01
+ MJC  = 4.931E-01  XCJC = 1.702E-01  TR   = 7.776E-10  CJS  = 1.931E-12
+ VJS  = 5.723E-01  MJS  = 4.105E-01  KF   = 2.000E-12  AF   = 1.000E+00
+ FC   = 9.765E-01
*
.MODEL QINP PNP
+ IS   = 1.660E-16  BF   = 7.165E+01  NF   = 1.000E+00  VAF  = 2.000E+01
+ IKF  = 1.882E-02  ISE  = 6.380E-16  NE   = 1.366E+00  BR   = 1.833E+01
+ NR   = 1.000E+00  VAR  = 1.805E+00  IKR  = 1.321E-01  ISC  = 3.666E-18
+ NC   = 1.634E+00  RB   = 2.876E+01  IRB  = 0.000E+00  RBM  = 7.568E+00
+ RE   = 6.118E-01  RC   = 3.739E+01  CJE  = 1.588E-13  VJE  = 7.975E-01
+ MJE  = 5.000E-01  TF   = 3.156E-11  XTF  = 5.386E+00  VTF  = 2.713E+00
+ ITF  = 5.084E-02  PTF  = 0.000E+00  CJC  = 2.725E-13  VJC  = 7.130E-01
+ MJC  = 4.200E-01  XCJC = 1.385E-01  TR   = 7.500E-11  CJS  = 7.417E-13
+ VJS  = 6.691E-01  MJS  = 3.950E-01  KF   = 2.000E-12  AF   = 1.000E+00
+ FC   = 8.803E-01
*
.MODEL QOUTP1 PNP
+ IS   = 2.399E-16  BF   = 7.165E+01  NF   = 1.000E+00  VAF  = 3.439E+01
+ IKF  = 3.509E-02  ISE  = 1.190E-15  NE   = 1.366E+00  BR   = 1.900E+01
+ NR   = 1.000E+00  VAR  = 1.805E+00  IKR  = 2.464E-01  ISC  = 6.745E-18
+ NC   = 1.634E+00  RB   = 1.542E+01  IRB  = 0.000E+00  RBM  = 4.059E+00
+ RE   = 3.281E-01  RC   = 4.174E+01  CJE  = 2.962E-13  VJE  = 7.975E-01
+ MJE  = 5.000E-01  TF   = 3.107E-11  XTF  = 5.386E+00  VTF  = 2.713E+00
+ ITF  = 9.481E-02  PTF  = 0.000E+00  CJC  = 4.508E-13  VJC  = 7.130E-01
+ MJC  = 4.200E-01  XCJC = 1.562E-01  TR   = 9.500E-11  CJS  = 1.045E-12
+ VJS  = 6.691E-01  MJS  = 3.950E-01  KF   = 2.000E-12  AF   = 1.000E+00
+ FC   = 8.803E-01
*
.MODEL QOUTP2 PNP
+ IS   = 1.158E-15  BF   = 7.165E+01  NF   = 1.000E+00  VAF  = 3.439E+01
+ IKF  = 1.694E-01  ISE  = 5.742E-15  NE   = 1.366E+00  BR   = 1.923E+01
+ NR   = 1.000E+00  VAR  = 1.805E+00  IKR  = 1.189E+00  ISC  = 3.240E-17
+ NC   = 1.634E+00  RB   = 3.162E+00  IRB  = 0.000E+00  RBM  = 8.410E-01
+ RE   = 6.797E-02  RC   = 8.267E+00  CJE  = 1.430E-12  VJE  = 7.975E-01
+ MJE  = 5.000E-01  TF   = 3.090E-11  XTF  = 5.386E+00  VTF  = 2.713E+00
+ ITF  = 4.575E-01  PTF  = 0.000E+00  CJC  = 2.083E-12  VJC  = 7.130E-01
+ MJC  = 4.200E-01  XCJC = 1.631E-01  TR   = 1.150E-10  CJS  = 3.993E-12
+ VJS  = 6.691E-01  MJS  = 3.950E-01  KF   = 2.000E-12  AF   = 1.000E+00
+ FC   = 8.803E-01
*
.ENDS
**********
*SRC=CLC406;CLC406;Opamps;Comlinear;Transimpedance
*SYM=AMPC5
*CLC406 subcircuit net list
*
* Version 1, Date 03-11-92
*
*Connections   Inverting Input
*              | Non-Inverting Input
*              | | Output
*              | | | +Vcc
*              | | | | -Vee
*              | | | | |
.SUBCKT CLC406  2 3 6 7 4
*
* DC BIAS MIRROR
*
R1 7 10   524
C1 10 0   1.0P
R2 11 4   532
C2 11 0   460F
*
G1 7 12 POLY(1) 7 10    93.4U   1.674M
C3 12 0   644F
*
G2 18 4 POLY(1) 11 4    0  1.649M
C4 18 0   551F
*
* INPUT VOLTAGE BUFFER
*
E1 3 15 POLY(1) 38 0    0  1.56
C51 15 0  1.00P
*
R5 15 14  50.0
Q1 11 14 13 QINP
R3 13 12  81.5
R6 15 16  50.0
Q2 10 16 17 QINN
R4 17 18  90.1
*
G3 2 0 POLY(1) 39 0    0 5.93M
C9 2 0    2.47P
*
R10 2 23  87.1
Q3 22 19 23 QINN
R7 12 19  50.0
*
R11 2 24  86.2
Q4 25 20 24 QINP
R8 18 20  50.0
*
* CURRENT MIRROR GAIN BLOCKS
*
R9 7 21   591
V1 21 22 2.66
C6 22 0   900F
C8 22 29  131F
G4 7 29 POLY(1) 7 21     0 3.881M
D1 29 27 DX
V3 7 27 1.96
G6 7 30 POLY(1) 7 21    0 4.633M
C14 30 0 475F
*
R12 26 4  589
V2 25 26 2.75
C7 25 0   454F
C10 25 29 76.6F
G5 29 4 POLY(1) 26 4      0 3.997M
D2 28 29 DX
V4 28 4 2.44
G7 32 4 POLY(1) 26 4     0 2.229M
C15 32 0  634F
*
* OUTPUT STAGE AND COMPENSATION CAPACITORS
*
C13 29 0  1250F 
R13 29 0  269K
C11 22 6  350F
C12 25 6  350F
*
Q5 4 29 30 QOUTP1
Q6 7 29 33 QOUTN1 0.333
Q7 4 32 33 QOUTP2
F1 7 29 POLY(1) V5   0   0.993
R14 29 31 137
V5 31 32 1.397
*
C16 6 0   2.50P
*
R17 6 36  10.0
Q8 7 34 36 QOUTN2
R15 30 34 25.0
R18 6 37  10.0
Q9 4 35 37 QOUTP3
R16 33 35 25.0
* NOISE BLOCKS
*
R19 38 0  122
R20 38 0  122
*
R21 39 0  122
R22 39 0  122
*
* DIODE MODEL
*
.MODEL DX D TT=10N
*
* TRANSISTOR MODELS
*
.MODEL QINN NPN
+ IS   = 1.660E-16  BF   = 3.239E+02  NF   = 1.000E+00  VAF  = 8.457E+01
+ IKF  = 2.462E-02  ISE  = 2.956E-17  NE   = 1.197E+00  BR   = 3.719E+01
+ NR   = 1.000E+00  VAR  = 1.696E+00  IKR  = 3.964E-02  ISC  = 1.835E-19
+ NC   = 1.700E+00  RB   = 6.796E+01  IRB  = 0.000E+00  RBM  = 1.506E+01
+ RE   = 5.613E-01  RC   = 2.645E+01  CJE  = 1.588E-13  VJE  = 7.973E-01
+ MJE  = 4.950E-01  TF   = 1.948E-11  XTF  = 1.873E+01  VTF  = 2.825E+00
+ ITF  = 5.955E-02  PTF  = 0.000E+00  CJC  = 1.720E-13  VJC  = 8.046E-01
+ MJC  = 4.931E-01  XCJC = 1.386E-01  TR   = 4.212E-10  CJS  = 3.938E-13
+ VJS  = 5.723E-01  MJS  = 4.105E-01  KF   = 2.000E-12   AF   = 1.000E+00
+ FC   = 9.765E-01
*
.MODEL QOUTN1 NPN
+ IS   = 7.822E-16  BF   = 3.239E+02  NF   = 1.000E+00  VAF  = 8.457E+01
+ IKF  = 9.079E-02  ISE  = 1.090E-16  NE   = 1.197E+00  BR   = 3.960E+01
+ NR   = 1.000E+00  VAR  = 1.696E+00  IKR  = 1.462E-01  ISC  = 5.656E-19
+ NC   = 1.700E+00  RB   = 1.843E+01  IRB  = 0.000E+00  RBM  = 4.083E+00
+ RE   = 1.522E-01  RC   = 6.141E+00  CJE  = 5.858E-13  VJE  = 7.973E-01
+ MJE  = 4.950E-01  TF   = 1.874E-11  XTF  = 1.873E+01  VTF  = 2.825E+00
+ ITF  = 2.196E-01  PTF  = 0.000E+00  CJC  = 5.143E-13  VJC  = 8.046E-01
+ MJC  = 4.931E-01  XCJC = 1.709E-01  TR   = 1.069E-09  CJS  = 8.567E-13
+ VJS  = 5.723E-01  MJS  = 4.105E-01  KF   = 2.000E-12   AF   = 1.000E+00
+ FC   = 9.765E-01
*
.MODEL QOUTN2 NPN
+ IS   = 1.880E-15  BF   = 3.239E+02  NF   = 1.000E+00  VAF  = 8.457E+01
+ IKF  = 2.182E-01  ISE  = 2.620E-16  NE   = 1.197E+00  BR   = 3.971E+01
+ NR   = 1.000E+00  VAR  = 1.696E+00  IKR  = 3.513E-01  ISC  = 1.348E-18
+ NC   = 1.700E+00  RB   = 7.668E+00  IRB  = 0.000E+00  RBM  = 1.699E+00
+ RE   = 6.333E-02  RC   = 3.738E+00  CJE  = 1.408E-12  VJE  = 7.973E-01
+ MJE  = 4.950E-01  TF   = 1.871E-11  XTF  = 1.873E+01  VTF  = 2.825E+00
+ ITF  = 5.278E-01  PTF  = 0.000E+00  CJC  = 1.224E-12  VJC  = 8.046E-01
+ MJC  = 4.931E-01  XCJC = 1.726E-01  TR   = 1.296E-09  CJS  = 1.496E-12
+ VJS  = 5.723E-01  MJS  = 4.105E-01  KF   = 2.000E-12   AF   = 1.000E+00
+ FC   = 9.765E-01
*
.MODEL QINP PNP
+ IS   = 1.660E-16  BF   = 7.165E+01  NF   = 1.000E+00  VAF  = 3.439E+01
+ IKF  = 1.882E-02  ISE  = 6.380E-16  NE   = 1.366E+00  BR   = 1.833E+01
+ NR   = 1.000E+00  VAR  = 1.805E+00  IKR  = 1.321E-01  ISC  = 3.666E-18
+ NC   = 1.634E+00  RB   = 2.876E+01  IRB  = 0.000E+00  RBM  = 7.568E+00
+ RE   = 6.118E-01  RC   = 3.739E+01  CJE  = 1.588E-13  VJE  = 7.975E-01
+ MJE  = 5.000E-01  TF   = 3.156E-11  XTF  = 5.386E+00  VTF  = 2.713E+00
+ ITF  = 5.084E-02  PTF  = 0.000E+00  CJC  = 2.725E-13  VJC  = 7.130E-01
+ MJC  = 4.200E-01  XCJC = 1.385E-01  TR   = 7.500E-11  CJS  = 7.417E-13
+ VJS  = 6.691E-01  MJS  = 3.950E-01  KF   = 2.000E-12   AF   = 1.000E+00
+ FC   = 8.803E-01
*
.MODEL QOUTP1 PNP
+ IS   = 4.744E-16  BF   = 7.165E+01  NF   = 1.000E+00  VAF  = 3.439E+01
+ IKF  = 6.940E-02  ISE  = 2.353E-15  NE   = 1.366E+00  BR   = 1.948E+01
+ NR   = 1.000E+00  VAR  = 1.805E+00  IKR  = 4.873E-01  ISC  = 1.322E-17
+ NC   = 1.634E+00  RB   = 7.797E+00  IRB  = 0.000E+00  RBM  = 2.052E+00
+ RE   = 1.659E-01  RC   = 1.037E+01  CJE  = 5.858E-13  VJE  = 7.975E-01
+ MJE  = 5.000E-01  TF   = 3.073E-11  XTF  = 5.386E+00  VTF  = 2.713E+00
+ ITF  = 1.875E-01  PTF  = 0.000E+00  CJC  = 8.147E-13  VJC  = 7.130E-01
+ MJC  = 4.200E-01  XCJC = 1.709E-01  TR   = 1.450E-10  CJS  = 1.364E-12
+ VJS  = 6.691E-01  MJS  = 3.950E-01  KF   = 2.000E-12   AF   = 1.000E+00
+ FC   = 8.803E-01
*
.MODEL QOUTP2 PNP
+ IS   = 2.399E-16  BF   = 7.165E+01  NF   = 1.000E+00  VAF  = 3.439E+01 
+ IKF  = 3.509E-02  ISE  = 1.190E-15  NE   = 1.366E+00  BR   = 1.900E+01 
+ NR   = 1.000E+00  VAR  = 1.805E+00  IKR  = 2.464E-01  ISC  = 6.745E-18 
+ NC   = 1.634E+00  RB   = 1.542E+01  IRB  = 0.000E+00  RBM  = 4.059E+00 
+ RE   = 3.281E-01  RC   = 1.649E+01  CJE  = 2.962E-13  VJE  = 7.975E-01 
+ MJE  = 5.000E-01  TF   = 3.107E-11  XTF  = 5.386E+00  VTF  = 2.713E+00 
+ ITF  = 9.481E-02  PTF  = 0.000E+00  CJC  = 4.508E-13  VJC  = 7.130E-01 
+ MJC  = 4.200E-01  XCJC = 1.562E-01  TR   = 9.500E-11  CJS  = 1.045E-12 
+ VJS  = 6.691E-01  MJS  = 3.950E-01  KF   = 2.000E-12  AF   = 1.000E+00 
+ FC   = 8.803E-01 
*
.MODEL QOUTP3 PNP
+ IS   = 1.140E-15  BF   = 7.165E+01  NF   = 1.000E+00  VAF  = 3.439E+01
+ IKF  = 1.668E-01  ISE  = 5.655E-15  NE   = 1.366E+00  BR   = 1.953E+01
+ NR   = 1.000E+00  VAR  = 1.805E+00  IKR  = 1.171E+00  ISC  = 3.173E-17
+ NC   = 1.634E+00  RB   = 3.245E+00  IRB  = 0.000E+00  RBM  = 8.539E-01
+ RE   = 6.902E-02  RC   = 6.213E+00  CJE  = 1.408E-12  VJE  = 7.975E-01
+ MJE  = 5.000E-01  TF   = 3.070E-11  XTF  = 5.386E+00  VTF  = 2.713E+00
+ ITF  = 4.506E-01  PTF  = 0.000E+00  CJC  = 1.939E-12  VJC  = 7.130E-01
+ MJC  = 4.200E-01  XCJC = 1.726E-01  TR   = 1.850E-10  CJS  = 2.351E-12
+ VJS  = 6.691E-01  MJS  = 3.950E-01  KF   = 2.000E-12  AF   = 1.000E+00
+ FC   = 8.803E-01
*
.ENDS 
**********
*SRC=CLC409;CLC409;Opamps;Comlinear;Transimpedance
*SYM=AMPC5
* OP AMP MACROMODEL FOR THE CLC409
*
* VERSION 1, DATE 04-09-92
*
*CONNECTIONS   Inverting Input
*              | Non-Inverting Input
*              | | Output
*              | | | +Vcc
*              | | | | -Vcc
*              | | | | |
.SUBCKT CLC409  2 3 6 7 4 
*
* DC BIAS MIRROR
*
R1 7 4 28K
R2 7 9 271
R3 10 4 335
*
G1 7 11 POLY(2) 7 9 7 4    0 3.15M 21.5U 
C3 11 0 128F 
*
G2 14 4 POLY(1) 10 4    0 2.95M 
C4 14 0 104F 
*
* INPUT VOLTAGE BUFFER
*
E1 3 17 POLY(1) 35 0    1.0M 1.673
C6 17 0 1.00P
*
Q1 10 17 12 QINP
D3 11 12 DY
Q2 9 17 13 QINN
D4 13 14 DY
*
G3 2 0 POLY(1) 36 0    0 9.282M
C10 2 0 2.9P 
*
D5 22 2  DY
Q3 21 11 22 QINN
D6 2 23  DY
Q4 24 14 23 QINP
*
* CURRENT MIRROR GAIN BLOCKS
*
R10 7 20 640
V1 20 21 1.9 
C8 21 28 294F
G4 7 28 POLY(1) 7 20    0 4.3M 
R15 7 28 102K
C13 28 0 641F
D1 28 26 DX
V3 7 26 1.65
G6 7 30 POLY(1) 7 20    0 2.74M 
C15 30 0 676F
*
R13 25 4 640
V2 24 25 1.85
C12 24 29 294F
G5 29 4 POLY(1) 25 4      0 4.5M  
R16 29 4 761K
C14 29 0  312F
D2 27 29 DX
V4 27 4 1.55 
G7 31 4 POLY(1) 25 4      0 6.74M 
C16 31 0 330F
*
* OUTPUT STAGE AND COMPENSATION CAPACITORS
*
R14 28 29 45.0
Q5 4 29 30 QOUTP1
Q6 7 28 31 QOUTN1
*
C9 21 33 .935P 
C11 24 33 .935P 
C17 33 0 4.00P 
R19 33 6 10
*
Q7 7 30 33 QOUTN2
Q8 4 31 33 QOUTP2
*
* NOISE BLOCKS
*
R20 35 0 122
R21 35 0 122
*
R22 36 0 122
R23 36 0 122
*
* DIODE MODELS
*
.MODEL DX D TT=200N
.MODEL DY D IS=0.166F
*
* TRANSISTOR MODELS
*
.MODEL QINN NPN
+ IS   = 0.166F     BF   = 3.239E+02  NF   = 1.000E+00  VAF  = 8.457E+01
+ IKF  = 2.462E-02  ISE  = 2.956E-17  NE   = 1.197E+00  BR   = 3.719E+01
+ NR   = 1.000E+00  VAR  = 1.696E+00  IKR  = 3.964E-02  ISC  = 1.835E-19
+ NC   = 1.700E+00  RB   = 118        IRB  = 0.000E+00  RBM  = 65.1
+ RC   = 2.645E+01  CJE  = 1.632E-13  VJE  = 7.973E-01
+ MJE  = 4.950E-01  TF   = 1.948E-11  XTF  = 1.873E+01  VTF  = 2.825E+00
+ ITF  = 5.955E-02  PTF  = 0.000E+00  CJC  = 1.720E-13  VJC  = 8.046E-01
+ MJC  = 4.931E-01  XCJC = 589M       TR   = 4.212E-10  CJS  = 629F
+ MJS  = 0          KF   = 2.000E-12  AF   = 1.000E+00  FC   = 9.765E-01
*
.MODEL QOUTN1 NPN
+ IS   = 3.954E-16  BF   = 3.239E+02  NF   = 1.000E+00  VAF  = 8.457E+01
+ IKF  = 4.590E-02  ISE  = 5.512E-17  NE   = 1.197E+00  BR   = 3.719E+01
+ NR   = 1.000E+00  VAR  = 1.696E+00  IKR  = 7.392E-02  ISC  = 3.087E-19
+ NC   = 1.700E+00  RB   = 3.645E+01  IRB  = 0.000E+00  RBM  = 8.077E+00
+ RE   = 3.010E-01  RC   = 2.702E+01  CJE  = 2.962E-13 
+ MJE  = 4.950E-01  TF   = 1.904E-11  XTF  = 1.873E+01  VTF  = 2.825E+00
+ ITF  = 1.110E-01  PTF  = 0.000E+00  CJC  = 2.846E-13  VJC  = 8.046E-01
+ MJC  = 4.931E-01  XCJC = 1.562E-01  TR   = 5.832E-10  CJS  = 5.015E-13
+ VJS  = 5.723E-01  MJS  = 4.105E-01  KF   = 2.000E-12  AF   = 1.000E+00
+ FC   = 9.765E-01
*
.MODEL QOUTN2 NPN
+ IS   = 9.386E-16  BF   = 3.239E+02  NF   = 1.000E+00  VAF  = 8.457E+01
+ IKF  = 1.089E-01  ISE  = 1.308E-16  NE   = 1.197E+00  BR   = 3.956E+01
+ NR   = 1.000E+00  VAR  = 1.696E+00  IKR  = 7.392E-02  ISC  = 1.378E-18
+ NC   = 1.700E+00  RB   = 65.4       IRB  = 0.000E+00  RBM  = 1.683E+00
+ RC   = 1.857E+01  CJE  = 7.030E-13  VJE  = 7.973E-01
+ MJE  = 4.950E-01  TF   = 1.875E-11  XTF  = 1.873E+01  VTF  = 2.825E+00
+ ITF  = 2.635E-01  PTF  = 0.000E+00  CJC  = 6.172E-13  VJC  = 8.046E-01
+ MJC  = 4.931E-01  XCJC = 860m       TR   = 1.069E-09  CJS  = 1.028E-12
+ VJS  = 5.723E-01  MJS  = 4.105E-01  KF   = 2.000E-12  AF   = 1.000E+00
+ FC   = 9.765E-01
*
.MODEL QINP PNP
+ IS   = 0.166F     BF   = 7.165E+01  NF   = 1.000E+00  VAF  = 2.000E+01
+ IKF  = 1.882E-02  ISE  = 6.380E-16  NE   = 1.366E+00  BR   = 1.833E+01
+ NR   = 1.000E+00  VAR  = 1.805E+00  IKR  = 1.321E-01  ISC  = 3.666E-18
+ NC   = 1.634E+00  RB   = 78.8       IRB  = 0.000E+00  RBM  = 57.6
+ RC   = 3.739E+01  CJE  = 1.588E-13  VJE  = 7.975E-01
+ MJE  = 5.000E-01  TF   = 3.156E-11  XTF  = 5.386E+00  VTF  = 2.713E+00
+ ITF  = 5.084E-02  PTF  = 0.000E+00  CJC  = 2.725E-13  VJC  = 7.130E-01
+ MJC  = 4.200E-01  XCJC = 741M       TR   = 7.500E-11  CJS  = 515F
+ MJS  = 0          KF   = 2.000E-12  AF   = 1.000E+00  FC   = 8.803E-01
*
.MODEL QOUTP1 PNP
+ IS   = 2.399E-16  BF   = 7.165E+01  NF   = 1.000E+00  VAF  = 3.439E+01
+ IKF  = 3.509E-02  ISE  = 1.190E-15  NE   = 1.366E+00  BR   = 1.900E+01
+ NR   = 1.000E+00  VAR  = 1.805E+00  IKR  = 2.464E-01  ISC  = 6.745E-18
+ NC   = 1.634E+00  RB   = 1.542E+01  IRB  = 0.000E+00  RBM  = 4.059E+00
+ RC   = 4.174E+01  CJE  = 2.962E-13  VJE  = 7.975E-01
+ MJE  = 5.000E-01  TF   = 3.107E-11  XTF  = 5.386E+00  VTF  = 2.713E+00
+ ITF  = 9.481E-02  PTF  = 0.000E+00  CJC  = 4.508E-13  VJC  = 7.130E-01
+ MJC  = 4.200E-01  XCJC = 1.562E-01  TR   = 9.500E-11  CJS  = 1.045E-12
+ VJS  = 6.691E-01  MJS  = 3.950E-01  KF   = 2.000E-12  AF   = 1.000E+00
+ FC   = 8.803E-01
*
.MODEL QOUTP2 PNP
+ IS   = 5.693E-16  BF   = 7.165E+01  NF   = 1.000E+00  VAF  = 3.439E+01
+ IKF  = 8.328E-02  ISE  = 5.742E-15  NE   = 1.366E+00  BR   = 1.923E+01
+ NR   = 1.000E+00  VAR  = 1.805E+00  IKR  = 5.848E-01  ISC  = 1.586E-17
+ NC   = 1.634E+00  RB   = 56.5       IRB  = 0.000E+00  RBM  = 51.7
+ RC   = 1.767E+00  CJE  = 7.030E-13  VJE  = 7.975E-01
+ MJE  = 5.000E-01  TF   = 3.073E-11  XTF  = 5.386E+00  VTF  = 2.713E+00
+ ITF  = 2.250E-01  PTF  = 0.000E+00  CJC  = 9.776E-13  VJC  = 7.130E-01
+ MJC  = 4.200E-01  XCJC = 923m       TR   = 1.450E-10  CJS  = 1.637E-12
+ VJS  = 6.691E-01  MJS  = 3.950E-01  KF   = 2.000E-12  AF   = 1.000E+00
+ FC   = 8.803E-01
*
.ENDS
**********
*SRC=CLC410;CLC410;Opamps;Comlinear;Transimpedance
*SYM=CL410
*CLC410 subcircuit net list
* has 10 0 in the polynomial G1 for unknown reason?
* Version 1, Date 03-17-92
*
* Connections  Non-Inverting Input
*              | Inverting Input
*              | | Output
*              | | | +Vcc 