*******************
*SRC=WCEEBUS;WCEEBUS;Connectors;Card-Edge;Computerbus, Burndy 
*SYM=CEE
.SUBCKT WCEEBUS 1 2 3 4 5 6 7 8 9 10 11 12 13 14 15 16 17 18
*PORTS 1A 2A 3A 4A 5A 6A 7A 8A 9A 1B 2B 3B 4B 5B 6B 7B 8B 9B
*Burndy COMPUTERBUS Card-Edge Connector SPICE MODEL V1.02(CEE1X9)
*PCI STYLE CONNECTOR (WHITE)
*      1 -+- 10 
*      2 -+- 11  C
*   T  3 -+- 12  O  P
*   A  4 -+- 13  N  O
*   I  5 -+- 14  T  I
*   L  6 -+- 15  A  N
*      7 -+- 16  C  T
*      8 -+- 17  T
*      9 -+- 18
X1 1 19 2 20 3 21 4 22 5 23 6 24 7 25 8 26 9 27 WCEE5
X2 19 28 20 29 21 30 22 31 23 32 24 33 25 34 26 35 27 36 WCEE4
X3 28 37 29 38 30 39 31 40 32 41 33 42 34 43 35 44 36 45 WCEE3
X4 37 46 38 47 39 48 40 49 41 50 42 51 43 52 44 53 45 54 WCEE2
X5 46 10 47 11 48 12 49 13 50 14 51 15 52 16 53 17 54 18 WCEE1
.ENDS WCEEBUS
*INCLUDE CONN2.LIB
***************
*SPS 2.04 FROM=TRLINE   TIME=14:58:45 DATE=93/01/22              QUANTIC
.SUBCKT WCEE1 1 2 3 4 5 6 7 8 9 10 11 12 13 14 15 16 17 18
*PORTS c1A c1B c2A c2B c3A c3B c4A c4B c5A c5B c6A c6B c7A c7B
*PORTS c8A c8B c9A c9B
*LENGTH 0.002032
.SUBCKT SECT 19 2 20 4 21 6 22 8 23 10 24 12 25 14 26 16 27 18
R11 19 1 1.644294E-03
R22 20 3 1.657299E-03
R33 21 5 1.661363E-03
R44 22 7 1.662989E-03
R55 23 9 1.663395E-03
R66 24 11 1.662989E-03
R77 25 13 1.661770E-03
R88 26 15 1.657706E-03
R99 27 17 1.645107E-03
L11 1 2 1.083462E-09
L22 3 4 1.080211E-09
L33 5 6 1.079398E-09
L44 7 8 1.079398E-09
L55 9 10 1.079805E-09
L66 11 12 1.080618E-09
L77 13 14 1.081431E-09
L88 15 16 1.083462E-09
L99 17 18 1.087526E-09
C11 2 0 4.042869E-16
C22 4 0 2.193343E-16
C33 6 0 1.832053E-16
C44 8 0 1.649981E-16
C55 10 0 1.621536E-16
C66 12 0 1.637791E-16
C77 14 0 1.825143E-16
C88 16 0 2.187251E-16
C99 18 0 3.918518E-16
K12 L11 L22 8.809175E-01
C12 2 4 7.359904E-15
K13 L11 L33 8.327711E-01
C13 2 6 1.750771E-15
K14 L11 L44 8.030829E-01
C14 2 8 1.022502E-15
K15 L11 L55 7.815153E-01
C15 2 10 7.022592E-16
K16 L11 L66 7.646955E-01
C16 2 12 5.230368E-16
K17 L11 L77 7.512674E-01
C17 2 14 4.246880E-16
K18 L11 L88 7.393098E-01
C18 2 16 3.885997E-16
K19 L11 L99 7.285674E-01
C19 2 18 5.466080E-16
K23 L22 L33 8.810689E-01
C23 4 6 6.441440E-15
K24 L22 L44 8.332707E-01
C24 4 8 1.239520E-15
K25 L22 L55 8.037629E-01
C25 4 10 6.835648E-16
K26 L22 L66 7.823961E-01
C26 4 12 4.637024E-16
K27 L22 L77 7.655575E-01
C27 4 14 3.504794E-16
K28 L22 L88 7.516913E-01
C28 4 16 2.994762E-16
K29 L22 L99 7.394118E-01
C29 4 18 3.893312E-16
K34 L33 L44 8.810241E-01
C34 6 8 6.307328E-15
K35 L33 L55 8.334274E-01
C35 6 10 1.154989E-15
K36 L33 L66 8.037630E-01
C36 6 12 6.323584E-16
K37 L33 L77 7.823964E-01
C37 6 14 4.380992E-16
K38 L33 L88 7.658789E-01
C38 6 16 3.508045E-16
K39 L33 L99 7.513181E-01
C39 6 18 4.263136E-16
K45 L44 L55 8.812346E-01
C45 8 10 6.266688E-15
K46 L44 L66 8.334903E-01
C46 8 12 1.136294E-15
K47 L44 L77 8.038371E-01
C47 8 14 6.323584E-16
K48 L44 L88 7.824140E-01
C48 8 16 4.645152E-16
K49 L44 L99 7.651967E-01
C49 8 18 5.250688E-16
K56 L55 L66 8.811136E-01
C56 10 12 6.262624E-15
K57 L55 L77 8.333962E-01
C57 10 14 1.154989E-15
K58 L55 L88 8.036832E-01
C58 10 16 6.839712E-16
K59 L55 L99 7.819288E-01
C59 10 18 7.038848E-16
K67 L66 L77 8.812031E-01
C67 12 14 6.307328E-15
K68 L66 L88 8.334279E-01
C68 12 16 1.239926E-15
K69 L66 L99 8.033780E-01
C69 12 18 1.024128E-15
K78 L77 L88 8.811717E-01
C78 14 16 6.441440E-15
K79 L77 L99 8.334302E-01
C79 14 18 1.753210E-15
K89 L88 L99 8.813193E-01
C89 16 18 7.363968E-15
.ENDS SECT
X1 1 19 3 23 5 27 7 31 9 35 11 39 13 43 15 47 17 51 SECT
X2 19 20 23 24 27 28 31 32 35 36 39 40 43 44 47 48 51 52 SECT
X3 20 21 24 25 28 29 32 33 36 37 40 41 44 45 48 49 52 53 SECT
X4 21 22 25 26 29 30 33 34 37 38 41 42 45 46 49 50 53 54 SECT
X5 22 2 26 4 30 6 34 8 38 10 42 12 46 14 50 16 54 18 SECT
.ENDS WCEE1
***************
*SPS 2.04 FROM=TRLINE   TIME=14:57:45 DATE=93/01/22              QUANTIC
.SUBCKT WCEE2 1 2 3 4 5 6 7 8 9 10 11 12 13 14 15 16 17 18
*PORTS c1A c1B c2A c2B c3A c3B c4A c4B c5A c5B c6A c6B c7A c7B
*PORTS c8A c8B c9A c9B
*LENGTH 0.001905
.SUBCKT SECT 19 2 20 4 21 6 22 8 23 10 24 12 25 14 26 16 27 18
R11 19 1 1.577721E-03
R22 20 3 1.592580E-03
R33 21 5 1.597152E-03
R44 22 7 1.598676E-03
R55 23 9 1.599057E-03
R66 24 11 1.599057E-03
R77 25 13 1.597533E-03
R88 26 15 1.592961E-03
R99 27 17 1.578483E-03
L11 1 2 1.014603E-09
L22 3 4 1.011555E-09
L33 5 6 1.010793E-09
L44 7 8 1.010793E-09
L55 9 10 1.011174E-09
L66 11 12 1.011936E-09
L77 13 14 1.012698E-09
L88 15 16 1.014603E-09
L99 17 18 1.018413E-09
C11 2 0 4.046230E-16
C22 4 0 2.263147E-16
C33 6 0 1.869955E-16
C44 8 0 1.684016E-16
C55 10 0 1.626860E-16
C66 12 0 1.676393E-16
C77 14 0 1.851671E-16
C88 16 0 2.211713E-16
C99 18 0 3.954771E-16
K12 L11 L22 8.807833E-01
C12 2 4 7.559040E-15
K13 L11 L33 8.325824E-01
C13 2 6 1.939671E-15
K14 L11 L44 8.028607E-01
C14 2 8 1.110615E-15
K15 L11 L55 7.812688E-01
C15 2 10 7.402830E-16
K16 L11 L66 7.644301E-01
C16 2 12 5.364480E-16
K17 L11 L77 7.509869E-01
C17 2 14 4.278630E-16
K18 L11 L88 7.390162E-01
C18 2 16 3.886200E-16
K19 L11 L99 7.282621E-01
C19 2 18 5.364480E-16
K23 L22 L33 8.809346E-01
C23 4 6 6.541770E-15
K24 L22 L44 8.330823E-01
C24 4 8 1.385316E-15
K25 L22 L55 8.035412E-01
C25 4 10 7.524750E-16
K26 L22 L66 7.821503E-01
C26 4 12 4.956810E-16
K27 L22 L77 7.652928E-01
C27 4 14 3.651504E-16
K28 L22 L88 7.514111E-01
C28 4 16 3.069336E-16
K29 L22 L99 7.391184E-01
C29 4 18 3.886200E-16
K34 L33 L44 8.808897E-01
C34 6 8 6.385560E-15
K35 L33 L55 8.332392E-01
C35 6 10 1.288161E-15
K36 L33 L66 8.035413E-01
C36 6 12 6.953250E-16
K37 L33 L77 7.821506E-01
C37 6 14 4.682490E-16
K38 L33 L88 7.652384E-01
C38 6 16 3.654552E-16
K39 L33 L99 7.510380E-01
C39 6 18 4.286250E-16
K45 L44 L55 8.811005E-01
C45 8 10 6.339840E-15
K46 L44 L66 8.333021E-01
C46 8 12 1.267587E-15
K47 L44 L77 8.036155E-01
C47 8 14 6.953250E-16
K48 L44 L88 7.821685E-01
C48 8 16 4.968240E-16
K49 L44 L99 7.649323E-01
C49 8 18 5.387340E-16
K56 L55 L66 8.809794E-01
C56 10 12 6.336030E-15
K57 L55 L77 8.332081E-01
C57 10 14 1.287780E-15
K58 L55 L88 8.034617E-01
C58 10 16 7.532370E-16
K59 L55 L99 7.816833E-01
C59 10 18 7.414260E-16
K67 L66 L77 8.810689E-01
C67 12 14 6.385560E-15
K68 L66 L88 8.332400E-01
C68 12 16 1.385697E-15
K69 L66 L99 8.031567E-01
C69 12 18 1.110615E-15
K78 L77 L88 8.810378E-01
C78 14 16 6.541770E-15
K79 L77 L99 8.332428E-01
C79 14 18 1.940814E-15
K89 L88 L99 8.811859E-01
C89 16 18 7.559040E-15
.ENDS SECT
X1 1 19 3 23 5 27 7 31 9 35 11 39 13 43 15 47 17 51 SECT
X2 19 20 23 24 27 28 31 32 35 36 39 40 43 44 47 48 51 52 SECT
X3 20 21 24 25 28 29 32 33 36 37 40 41 44 45 48 49 52 53 SECT
X4 21 22 25 26 29 30 33 34 37 38 41 42 45 46 49 50 53 54 SECT
X5 22 2 26 4 30 6 34 8 38 10 42 12 46 14 50 16 54 18 SECT
.ENDS WCEE2
****************
*SPS 2.04 FROM=TRLINE   TIME=14:56:31 DATE=93/01/22              QUANTIC
.SUBCKT WCEE3 1 2 3 4 5 6 7 8 9 10 11 12 13 14 15 16 17 18
*PORTS c1A c1B c2A c2B c3A c3B c4A c4B c5A c5B c6A c6B c7A c7B
*PORTS c8A c8B c9A c9B
*LENGTH 0.002159
.SUBCKT SECT 19 2 20 4 21 6 22 8 23 10 24 12 25 14 26 16 27 18
R11 19 1 1.771675E-03
R22 20 3 1.784629E-03
R33 21 5 1.789379E-03
R44 22 7 1.790674E-03
R55 23 9 1.791106E-03
R66 24 11 1.790674E-03
R77 25 13 1.789811E-03
R88 26 15 1.785493E-03
R99 27 17 1.772539E-03
L11 1 2 1.148588E-09
L22 3 4 1.145133E-09
L33 5 6 1.144270E-09
L44 7 8 1.144270E-09
L55 9 10 1.144702E-09
L66 11 12 1.145565E-09
L77 13 14 1.146429E-09
L88 15 16 1.148588E-09
L99 17 18 1.152906E-09
C11 2 0 4.509295E-16
C22 4 0 2.557992E-16
C33 6 0 2.054926E-16
C44 8 0 1.865366E-16
C55 10 0 1.787650E-16
C66 12 0 1.852412E-16
C77 14 0 1.991451E-16
C88 16 0 2.498408E-16
C99 18 0 4.359458E-16
K12 L11 L22 8.806486E-01
C12 2 4 8.687815E-15
K13 L11 L33 8.323932E-01
C13 2 6 2.501417E-15
K14 L11 L44 8.026379E-01
C14 2 8 1.375715E-15
K15 L11 L55 7.810216E-01
C15 2 10 8.700769E-16
K16 L11 L66 7.641640E-01
C16 2 12 6.040881E-16
K17 L11 L77 7.507059E-01
C17 2 14 4.697984E-16
K18 L11 L88 7.387217E-01
C18 2 16 4.251934E-16
K19 L11 L99 7.279562E-01
C19 2 18 5.742939E-16
K23 L22 L33 8.807998E-01
C23 4 6 7.396734E-15
K24 L22 L44 8.328934E-01
C24 4 8 1.820469E-15
K25 L22 L55 8.029418E-01
C25 4 10 9.551415E-16
K26 L22 L66 7.815269E-01
C26 4 12 5.958839E-16
K27 L22 L77 7.650275E-01
C27 4 14 4.221277E-16
K28 L22 L88 7.511304E-01
C28 4 16 3.477717E-16
K29 L22 L99 7.388242E-01
C29 4 18 4.260138E-16
K34 L33 L44 8.807548E-01
C34 6 8 7.176515E-15
K35 L33 L55 8.330504E-01
C35 6 10 1.690065E-15
K36 L33 L66 8.033190E-01
C36 6 12 8.830309E-16
K37 L33 L77 7.819042E-01
C37 6 14 5.634990E-16
K38 L33 L88 7.649730E-01
C38 6 16 4.223435E-16
K39 L33 L99 7.507572E-01
C39 6 18 4.719574E-16
K45 L44 L55 8.809659E-01
C45 8 10 7.120382E-15
K46 L44 L66 8.331134E-01
C46 8 12 1.666316E-15
K47 L44 L77 8.033934E-01
C47 8 14 8.830309E-16
K48 L44 L88 7.819223E-01
C48 8 16 5.980430E-16
K49 L44 L99 7.646671E-01
C49 8 18 6.084061E-16
K56 L55 L66 8.808448E-01
C56 10 12 7.116064E-15
K57 L55 L77 8.330196E-01
C57 10 14 1.689201E-15
K58 L55 L88 8.032397E-01
C58 10 16 9.564370E-16
K59 L55 L99 7.814371E-01
C59 10 18 8.730995E-16
K67 L66 L77 8.809345E-01
C67 12 14 7.176515E-15
K68 L66 L88 8.330517E-01
C68 12 16 1.820469E-15
K69 L66 L99 8.029348E-01
C69 12 18 1.376578E-15
K78 L77 L88 8.809035E-01
C78 14 16 7.396734E-15
K79 L77 L99 8.330550E-01
C79 14 18 2.505735E-15
K89 L88 L99 8.810522E-01
C89 16 18 8.700769E-15
.ENDS SECT
X1 1 19 3 23 5 27 7 31 9 35 11 39 13 43 15 47 17 51 SECT
X2 19 20 23 24 27 28 31 32 35 36 39 40 43 44 47 48 51 52 SECT
X3 20 21 24 25 28 29 32 33 36 37 40 41 44 45 48 49 52 53 SECT
X4 21 22 25 26 29 30 33 34 37 38 41 42 45 46 49 50 53 54 SECT
X5 22 2 26 4 30 6 34 8 38 10 42 12 46 14 50 16 54 18 SECT
.ENDS WCEE3
*************
*SPS 2.04 FROM=TRLINE   TIME=14:50:26 DATE=93/01/22              QUANTIC
.SUBCKT WCEE4 1 2 3 4 5 6 7 8 9 10 11 12 13 14 15 16 17 18
*PORTS c1A c1B c2A c2B c3A c3B c4A c4B c5A c5B c6A c6B c7A c7B
*PORTS c8A c8B c9A c9B
*LENGTH 0.005334
.SUBCKT SECT 19 2 20 4 21 6 22 8 23 10 24 12 25 14 26 16 27 18
R11 19 1 4.341876E-03
R22 20 3 4.373880E-03
R33 21 5 4.385615E-03
R44 22 7 4.384548E-03
R55 23 9 4.386682E-03
R66 24 11 4.384548E-03
R77 25 13 4.386682E-03
R88 26 15 4.374946E-03
R99 27 17 4.342943E-03
L11 1 2 2.832354E-09
L22 3 4 2.822753E-09
L33 5 6 2.821686E-09
L44 7 8 2.821686E-09
L55 9 10 2.822753E-09
L66 11 12 2.823819E-09
L77 13 14 2.827020E-09
L88 15 16 2.831287E-09
L99 17 18 2.843022E-09
C11 2 0 1.231405E-15
C22 4 0 5.979464E-16
C33 6 0 4.468835E-16
C44 8 0 3.808441E-16
C55 10 0 3.616407E-16
C66 12 0 3.776429E-16
C77 14 0 4.421910E-16
C88 16 0 5.824775E-16
C99 18 0 1.181591E-15
K12 L11 L22 8.802126E-01
C12 2 4 4.316273E-14
K13 L11 L33 8.320770E-01
C13 2 6 1.025195E-14
K14 L11 L44 8.018882E-01
C14 2 8 4.144518E-15
K15 L11 L55 7.806085E-01
C15 2 10 2.014118E-15
K16 L11 L66 7.638636E-01
C16 2 12 1.217219E-15
K17 L11 L77 7.498590E-01
C17 2 14 9.295028E-16
K18 L11 L88 7.383688E-01
C18 2 16 9.136075E-16
K19 L11 L99 7.274448E-01
C19 2 18 1.487119E-15
K23 L22 L33 8.803628E-01
C23 4 6 3.696462E-14
K24 L22 L44 8.323568E-01
C24 4 8 7.822844E-15
K25 L22 L55 8.027211E-01
C25 4 10 2.861158E-15
K26 L22 L66 7.814094E-01
C26 4 12 1.270559E-15
K27 L22 L77 7.647283E-01
C27 4 14 8.138617E-16
K28 L22 L88 7.509443E-01
C28 4 16 6.768846E-16
K29 L22 L99 7.384720E-01
C29 4 18 9.026195E-16
K34 L33 L44 8.805292E-01
C34 6 8 3.615385E-14
K35 L33 L55 8.323568E-01
C35 6 10 7.299046E-15
K36 L33 L66 8.030991E-01
C36 6 12 2.777947E-15
K37 L33 L77 7.814923E-01
C37 6 14 1.298296E-15
K38 L33 L88 7.646737E-01
C38 6 16 7.961528E-16
K39 L33 L99 7.502878E-01
C39 6 18 9.321698E-16
K45 L44 L55 8.803628E-01
C45 8 10 3.611118E-14
K46 L44 L66 8.325775E-01
C46 8 12 7.453732E-15
K47 L44 L77 8.030220E-01
C47 8 14 2.739542E-15
K48 L44 L88 7.816581E-01
C48 8 16 1.281227E-15
K49 L44 L99 7.642238E-01
C49 8 18 1.254557E-15
K56 L55 L66 8.807859E-01
C56 10 12 3.608984E-14
K57 L55 L77 8.327042E-01
C57 10 14 7.274509E-15
K58 L55 L88 8.030198E-01
C58 10 16 2.917698E-15
K59 L55 L99 7.810255E-01
C59 10 18 2.035454E-15
K67 L66 L77 8.808762E-01
C67 12 14 3.612185E-14
K68 L66 L88 8.330512E-01
C68 12 16 7.808975E-15
K69 L66 L99 8.027155E-01
C69 12 18 4.081576E-15
K78 L77 L88 8.808450E-01
C78 14 16 3.690061E-14
K79 L77 L99 8.327408E-01
C79 14 18 1.017941E-14
K89 L88 L99 8.809946E-01
C89 16 18 4.337609E-14
.ENDS SECT
X1 1 19 3 23 5 27 7 31 9 35 11 39 13 43 15 47 17 51 SECT
X2 19 20 23 24 27 28 31 32 35 36 39 40 43 44 47 48 51 52 SECT
X3 20 21 24 25 28 29 32 33 36 37 40 41 44 45 48 49 52 53 SECT
X4 21 22 25 26 29 30 33 34 37 38 41 42 45 46 49 50 53 54 SECT
X5 22 2 26 4 30 6 34 8 38 10 42 12 46 14 50 16 54 18 SECT
.ENDS WCEE4
*****************
*SPS 2.04 FROM=TRLINE   TIME=14:41:50 DATE=93/01/22              QUANTIC
.SUBCKT WCEE5 1 2 3 4 5 6 7 8 9 10 11 12 13 14 15 16 17 18
*PORTS c1A c1B c2A c2B c3A c3B c4A c4B c5A c5B c6A c6B c7A c7B
*PORTS c8A c8B c9A c9B
*LENGTH 0.001524
.SUBCKT SECT 19 2 20 4 21 6 22 8 23 10 24 12 25 14 26 16 27 18
R11 19 1 1.184758E-03
R22 20 3 1.185672E-03
R33 21 5 1.186891E-03
R44 22 7 1.186891E-03
R55 23 9 1.187501E-03
R66 24 11 1.186891E-03
R77 25 13 1.186891E-03
R88 26 15 1.185672E-03
R99 27 17 1.184758E-03
L11 1 2 8.135111E-10
L22 3 4 8.086343E-10
L33 5 6 8.125968E-10
L44 7 8 8.083296E-10
L55 9 10 8.129016E-10
L66 11 12 8.092439E-10
L77 13 14 8.141208E-10
L88 15 16 8.113776E-10
L99 17 18 8.165592E-10
C11 2 0 2.841348E-16
C22 4 0 2.116531E-16
C33 6 0 1.160373E-16
C44 8 0 1.297842E-16
C55 10 0 9.768855E-17
C66 12 0 1.288395E-16
C77 14 0 1.146354E-16
C88 16 0 2.045206E-16
C99 18 0 2.759049E-16
K12 L11 L22 8.376589E-01
C12 2 4 2.099157E-15
K13 L11 L33 8.262420E-01
C13 2 6 1.531620E-15
K14 L11 L44 7.897053E-01
C14 2 8 3.493008E-16
K15 L11 L55 7.758621E-01
C15 2 10 3.410712E-16
K16 L11 L66 7.565767E-01
C16 2 12 1.662989E-16
K17 L11 L77 7.460675E-01
C17 2 14 2.039722E-16
K18 L11 L88 7.326962E-01
C18 2 16 1.874520E-16
K19 L11 L99 7.247581E-01
C19 2 18 2.898648E-16
K23 L22 L33 8.377540E-01
C23 4 6 1.526743E-15
K24 L22 L44 8.256363E-01
C24 4 8 1.402080E-15
K25 L22 L55 7.898524E-01
C25 4 10 2.315565E-16
K26 L22 L66 7.750566E-01
C26 4 12 2.895295E-16
K27 L22 L77 7.569540E-01
C27 4 14 1.099109E-16
K28 L22 L88 7.450622E-01
C28 4 16 2.054352E-16
K29 L22 L99 7.329420E-01
C29 4 18 1.875739E-16
K34 L33 L44 8.379119E-01
C34 6 8 1.435608E-15
K35 L33 L55 8.261766E-01
C35 6 10 1.316736E-15
K36 L33 L66 7.900788E-01
C36 6 12 1.965350E-16
K37 L33 L77 7.764665E-01
C37 6 14 2.496617E-16
K38 L33 L88 7.567570E-01
C38 6 16 1.100938E-16
K39 L33 L99 7.464942E-01
C39 6 18 2.042770E-16
K45 L44 L55 8.377548E-01
C45 8 10 1.420368E-15
K46 L44 L66 8.257021E-01
C46 8 12 1.315212E-15
K47 L44 L77 7.901610E-01
C47 8 14 1.965960E-16
K48 L44 L88 7.753119E-01
C48 8 16 2.898648E-16
K49 L44 L99 7.570909E-01
C49 8 18 1.667865E-16
K56 L55 L66 8.380330E-01
C56 10 12 1.420368E-15
K57 L55 L77 8.265271E-01
C57 10 14 1.316736E-15
K58 L55 L88 7.903926E-01
C58 10 16 2.318918E-16
K59 L55 L99 7.766575E-01
C59 10 18 3.413760E-16
K67 L66 L77 8.381563E-01
C67 12 14 1.435913E-15
K68 L66 L88 8.256543E-01
C68 12 16 1.402690E-15
K69 L66 L99 7.904092E-01
C69 12 18 3.502152E-16
K78 L77 L88 8.381786E-01
C78 14 16 1.527353E-15
K79 L77 L99 8.269168E-01
C79 14 18 1.532534E-15
K89 L88 L99 8.380495E-01
C89 16 18 2.101291E-15
.ENDS SECT
X1 1 19 3 23 5 27 7 31 9 35 11 39 13 43 15 47 17 51 SECT
X2 19 20 23 24 27 28 31 32 35 36 39 40 43 44 47 48 51 52 SECT
X3 20 21 24 25 28 29 32 33 36 37 40 41 44 45 48 49 52 53 SECT
X4 21 22 25 26 29 30 33 34 37 38 41 42 45 46 49 50 53 54 SECT
X5 22 2 26 4 30 6 34 8 38 10 42 12 46 14 50 16 54 18 SECT
.ENDS WCEE5
*************
*SRC=CEE;CEE;Connectors;Card-Edge;Computerbus, Burndy 
*SYM=CEE
.SUBCKT CEE 1 2 3 4 5 6 7 8 9 10 11 12 13 14 15 16 17 18
*     1-+-10
*     2-+-11  C
*  T  3-+-12  O  P
*  A  4-+-13  N  O
*  I  5-+-14  T  I
*  L  6-+-15  A  N
*  S  7-+-16  C  T
*     8-+-17  T
*     9-+-18
*Burndy COMPUTERBUS SPICE model
*Developed using Quantic Greenfield software
X1 47 1 45 2 46 3 37 4 39 5 41 6 43 7 49 8 48 9 CE5     
X2 1 10 2 11 3 12 4 13 5 14 6 15 7 16 8 17 9 18 CE4     
X3 10 19 11 20 12 21 13 22 14 23 15 24 16 25 17 26 18 27 CE3    
X4 19 28 20 29 21 30 22 31 23 32 24 33 25 34 26 35 27 36 CE2    
X5 28 50 29 60 30 53 31 54 32 52 33 55 34 56 35 57 36 58 CEE1   
.ENDS CEE
*INCLUDE CONN2.LIB
*************
.SUBCKT CE4 1 2 3 4 5 6 7 8 9 10 11 12 13 14 15 16 17 18
*PORTS c1A c1B c2A c2B c3A c3B c4A c4B c5A c5B c6A c6B c7A c7B  
*PORTS c8A c8B c9A c9B  
*LENGTH 0.005334
.SUBCKT SECT 19 2 20 4 21 6 22 8 23 10 24 12 25 14 26 16 27 18  
R11 19 1 4.341876E-03   
R22 20 3 4.373880E-03   
R33 21 5 4.385615E-03   
R44 22 7 4.384548E-03   
R55 23 9 4.386682E-03   
R66 24 11 4.384548E-03  
R77 25 13 4.386682E-03  
R88 26 15 4.374946E-03  
R99 27 17 4.342943E-03  
L11 1 2 2.832354E-09    
L22 3 4 2.822753E-09    
L33 5 6 2.821686E-09    
L44 7 8 2.821686E-09    
L55 9 10 2.822753E-09   
L66 11 12 2.823819E-09  
L77 13 14 2.827020E-09  
L88 15 16 2.831287E-09  
L99 17 18 2.843022E-09  
C11 2 0 1.206236E-15    
C22 4 0 5.831080E-16    
C33 6 0 4.421884E-16    
C44 8 0 3.850096E-16    
C55 10 0 3.723123E-16   
C66 12 0 3.822340E-16   
C77 14 0 4.363194E-16   
C88 16 0 5.806546E-16   
C99 18 0 1.157691E-15   
K12 L11 L22 8.802126E-01
C12 2 4 3.204667E-14    
K13 L11 L33 8.320770E-01
C13 2 6 7.374788E-15    
K14 L11 L44 8.018882E-01
C14 2 8 3.139592E-15    
K15 L11 L55 7.806085E-01
C15 2 10 1.653540E-15   
K16 L11 L66 7.638636E-01
C16 2 12 1.074268E-15   
K17 L11 L77 7.498590E-01
C17 2 14 8.569604E-16   
K18 L11 L88 7.383688E-01
C18 2 16 8.566404E-16   
K19 L11 L99 7.274448E-01
C19 2 18 1.408176E-15   
K23 L22 L33 8.803628E-01
C23 4 6 2.765146E-14    
K24 L22 L44 8.323568E-01
C24 4 8 5.566562E-15    
K25 L22 L55 8.027211E-01
C25 4 10 2.141068E-15   
K26 L22 L66 7.814094E-01
C26 4 12 1.040237E-15   
K27 L22 L77 7.647283E-01
C27 4 14 7.008876E-16   
K28 L22 L88 7.509443E-01
C28 4 16 6.051956E-16   
K29 L22 L99 7.384720E-01
C29 4 18 8.523732E-16   
K34 L33 L44 8.805292E-01
C34 6 8 2.709672E-14    
K35 L33 L55 8.323568E-01
C35 6 10 5.210251E-15   
K36 L33 L66 8.030991E-01
C36 6 12 2.054657E-15   
K37 L33 L77 7.814923E-01
C37 6 14 1.032769E-15   
K38 L33 L88 7.646737E-01
C38 6 16 6.904330E-16   
K39 L33 L99 7.502878E-01
C39 6 18 8.589873E-16   
K45 L44 L55 8.803628E-01
C45 8 10 2.704338E-14   
K46 L44 L66 8.325775E-01
C46 8 12 5.284927E-15   
K47 L44 L77 8.030220E-01
C47 8 14 2.032254E-15   
K48 L44 L88 7.816581E-01
C48 8 16 1.045571E-15   
K49 L44 L99 7.642238E-01
C49 8 18 1.095604E-15   
K56 L55 L66 8.807859E-01
C56 10 12 2.703271E-14  
K57 L55 L77 8.327042E-01
C57 10 14 5.197449E-15  
K58 L55 L88 8.030198E-01
C58 10 16 2.173071E-15  
K59 L55 L99 7.810255E-01
C59 10 18 1.667408E-15  
K67 L66 L77 8.808762E-01
C67 12 14 2.707538E-14  
K68 L66 L88 8.330512E-01
C68 12 16 5.560161E-15  
K69 L66 L99 8.027155E-01
C69 12 18 3.109722E-15  
K78 L77 L88 8.808450E-01
C78 14 16 2.760878E-14  
K79 L77 L99 8.327408E-01
C79 14 18 7.339584E-15  
K89 L88 L99 8.809946E-01
C89 16 18 3.216402E-14  
.ENDS SECT      
X1 1 19 3 23 5 27 7 31 9 35 11 39 13 43 15 47 17 51 SECT
X2 19 20 23 24 27 28 31 32 35 36 39 40 43 44 47 48 51 52 SECT   
X3 20 21 24 25 28 29 32 33 36 37 40 41 44 45 48 49 52 53 SECT   
X4 21 22 25 26 29 30 33 34 37 38 41 42 45 46 49 50 53 54 SECT   
X5 22 2 26 4 30 6 34 8 38 10 42 12 46 14 50 16 54 18 SECT       
.ENDS CE4
***************
.SUBCKT CE3 1 2 3 4 5 6 7 8 9 10 11 12 13 14 15 16 17 18
*PORTS c1A c1B c2A c2B c3A c3B c4A c4B c5A c5B c6A c6B c7A c7B  
*PORTS c8A c8B c9A c9B  
*LENGTH 0.002159
.SUBCKT SECT 19 2 20 4 21 6 22 8 23 10 24 12 25 14 26 16 27 18  
R11 19 1 1.771675E-03   
R22 20 3 1.784629E-03   
R33 21 5 1.789379E-03   
R44 22 7 1.790674E-03   
R55 23 9 1.791106E-03   
R66 24 11 1.790674E-03  
R77 25 13 1.789811E-03  
R88 26 15 1.785493E-03  
R99 27 17 1.772539E-03  
L11 1 2 1.148588E-09    
L22 3 4 1.145133E-09    
L33 5 6 1.144270E-09    
L44 7 8 1.144270E-09    
L55 9 10 1.144702E-09   
L66 11 12 1.145565E-09  
L77 13 14 1.146429E-09  
L88 15 16 1.148588E-09  
L99 17 18 1.152906E-09  
C11 2 0 4.533452E-16    
C22 4 0 2.466433E-16    
C33 6 0 1.969866E-16    
C44 8 0 1.766059E-16    
C55 10 0 1.671065E-16   
C66 12 0 1.753103E-16   
C77 14 0 1.954759E-16   
C88 16 0 2.450017E-16   
C99 18 0 4.383209E-16   
K12 L11 L22 8.806486E-01
C12 2 4 8.113522E-15    
K13 L11 L33 8.323932E-01
C13 2 6 2.089912E-15    
K14 L11 L44 8.026379E-01
C14 2 8 1.107135E-15    
K15 L11 L55 7.810216E-01
C15 2 10 6.964933E-16   
K16 L11 L66 7.641640E-01
C16 2 12 4.909565E-16   
K17 L11 L77 7.507059E-01
C17 2 14 3.925062E-16   
K18 L11 L88 7.387217E-01
C18 2 16 3.688003E-16   
K19 L11 L99 7.279562E-01
C19 2 18 5.367274E-16   
K23 L22 L33 8.807998E-01
C23 4 6 6.982205E-15    
K24 L22 L44 8.328934E-01
C24 4 8 1.515618E-15    
K25 L22 L55 8.029418E-01
C25 4 10 7.560817E-16   
K26 L22 L66 7.815269E-01
C26 4 12 4.646167E-16   
K27 L22 L77 7.650275E-01
C27 4 14 3.312769E-16   
K28 L22 L88 7.511304E-01
C28 4 16 2.803245E-16   
K29 L22 L99 7.388242E-01
C29 4 18 3.693617E-16   
K34 L33 L44 8.807548E-01
C34 6 8 6.818121E-15    
K35 L33 L55 8.330504E-01
C35 6 10 1.419327E-15   
K36 L33 L66 8.033190E-01
C36 6 12 7.025385E-16   
K37 L33 L77 7.819042E-01
C37 6 14 4.391406E-16   
K38 L33 L88 7.649730E-01
C38 6 16 3.314065E-16   
K39 L33 L99 7.507572E-01
C39 6 18 3.939311E-16   
K45 L44 L55 8.809659E-01
C45 8 10 6.779260E-15   
K46 L44 L66 8.331134E-01
C46 8 12 1.402486E-15   
K47 L44 L77 8.033934E-01
C47 8 14 7.021068E-16   
K48 L44 L88 7.819223E-01
C48 8 16 4.659122E-16   
K49 L44 L99 7.646671E-01
C49 8 18 4.939792E-16   
K56 L55 L66 8.808448E-01
C56 10 12 6.774941E-15  
K57 L55 L77 8.330196E-01
C57 10 14 1.418463E-15  
K58 L55 L88 8.032397E-01
C58 10 16 7.578089E-16  
K59 L55 L99 7.814371E-01
C59 10 18 6.986524E-16  
K67 L66 L77 8.809345E-01
C67 12 14 6.818121E-15  
K68 L66 L88 8.330517E-01
C68 12 16 1.516482E-15  
K69 L66 L99 8.029348E-01
C69 12 18 1.108430E-15  
K78 L77 L88 8.809035E-01
C78 14 16 6.982205E-15  
K79 L77 L99 8.330550E-01
C79 14 18 2.092934E-15  
K89 L88 L99 8.810522E-01
C89 16 18 8.122157E-15  
.ENDS SECT      
X1 1 19 3 23 5 27 7 31 9 35 11 39 13 43 15 47 17 51 SECT
X2 19 20 23 24 27 28 31 32 35 36 39 40 43 44 47 48 51 52 SECT   
X3 20 21 24 25 28 29 32 33 36 37 40 41 44 45 48 49 52 53 SECT   
X4 21 22 25 26 29 30 33 34 37 38 41 42 45 46 49 50 53 54 SECT   
X5 22 2 26 4 30 6 34 8 38 10 42 12 46 14 50 16 54 18 SECT       
.ENDS CE3
******************
.SUBCKT CE2 1 2 3 4 5 6 7 8 9 10 11 12 13 14 15 16 17 18
*PORTS c1A c1B c2A c2B c3A c3B c4A c4B c5A c5B c6A c6B c7A c7B  
*PORTS c8A c8B c9A c9B  
*LENGTH 0.001905
.SUBCKT SECT 19 2 20 4 21 6 22 8 23 10 24 12 25 14 26 16 27 18  
R11 19 1 1.577721E-03   
R22 20 3 1.592580E-03   
R33 21 5 1.597152E-03   
R44 22 7 1.598676E-03   
R55 23 9 1.599057E-03   
R66 24 11 1.599057E-03  
R77 25 13 1.597533E-03  
R88 26 15 1.592961E-03  
R99 27 17 1.578483E-03  
L11 1 2 1.014603E-09    
L22 3 4 1.011555E-09    
L33 5 6 1.010793E-09    
L44 7 8 1.010793E-09    
L55 9 10 1.011174E-09   
L66 11 12 1.011936E-09  
L77 13 14 1.012698E-09  
L88 15 16 1.014603E-09  
L99 17 18 1.018413E-09  
C11 2 0 4.068702E-16    
C22 4 0 2.114545E-16    
C33 6 0 1.773553E-16    
C44 8 0 1.584969E-16    
C55 10 0 1.493530E-16   
C66 12 0 1.581155E-16   
C77 14 0 1.721741E-16   
C88 16 0 2.107689E-16   
C99 18 0 3.935349E-16   
K12 L11 L22 8.807833E-01
C12 2 4 7.056120E-15    
K13 L11 L33 8.325824E-01
C13 2 6 1.635633E-15    
K14 L11 L44 8.028607E-01
C14 2 8 9.003030E-16    
K15 L11 L55 7.812688E-01
C15 2 10 5.951220E-16   
K16 L11 L66 7.644301E-01
C16 2 12 4.354830E-16   
K17 L11 L77 7.509869E-01
C17 2 14 3.543681E-16   
K18 L11 L88 7.390162E-01
C18 2 16 3.318510E-16   
K19 L11 L99 7.282621E-01
C19 2 18 4.914900E-16   
K23 L22 L33 8.809346E-01
C23 4 6 6.160770E-15    
K24 L22 L44 8.330823E-01
C24 4 8 1.164717E-15    
K25 L22 L55 8.035412E-01
C25 4 10 5.993130E-16   
K26 L22 L66 7.821503E-01
C26 4 12 3.878580E-16   
K27 L22 L77 7.652928E-01
C27 4 14 2.862834E-16   
K28 L22 L88 7.514111E-01
C28 4 16 2.453259E-16   
K29 L22 L99 7.391184E-01
C29 4 18 3.321177E-16   
K34 L33 L44 8.808897E-01
C34 6 8 6.038850E-15    
K35 L33 L55 8.332392E-01
C35 6 10 1.091946E-15   
K36 L33 L66 8.035413E-01
C36 6 12 5.562600E-16   
K37 L33 L77 7.821506E-01
C37 6 14 3.662172E-16   
K38 L33 L88 7.652384E-01
C38 6 16 2.865120E-16   
K39 L33 L99 7.510380E-01
C39 6 18 3.552063E-16   
K45 L44 L55 8.811005E-01
C45 8 10 6.008370E-15   
K46 L44 L66 8.333021E-01
C46 8 12 1.077087E-15   
K47 L44 L77 8.036155E-01
C47 8 14 5.562600E-16   
K48 L44 L88 7.821685E-01
C48 8 16 3.886200E-16   
K49 L44 L99 7.649323E-01
C49 8 18 4.373880E-16   
K56 L55 L66 8.809794E-01
C56 10 12 6.008370E-15  
K57 L55 L77 8.332081E-01
C57 10 14 1.091565E-15  
K58 L55 L88 8.034617E-01
C58 10 16 6.000750E-16  
K59 L55 L99 7.816833E-01
C59 10 18 5.966460E-16  
K67 L66 L77 8.810689E-01
C67 12 14 6.038850E-15  
K68 L66 L88 8.332400E-01
C68 12 16 1.165098E-15  
K69 L66 L99 8.031567E-01
C69 12 18 9.010650E-16  
K78 L77 L88 8.810378E-01
C78 14 16 6.160770E-15  
K79 L77 L99 8.332428E-01
C79 14 18 1.637157E-15  
K89 L88 L99 8.811859E-01
C89 16 18 7.059930E-15  
.ENDS SECT      
X1 1 19 3 23 5 27 7 31 9 35 11 39 13 43 15 47 17 51 SECT
X2 19 20 23 24 27 28 31 32 35 36 39 40 43 44 47 48 51 52 SECT   
X3 20 21 24 25 28 29 32 33 36 37 40 41 44 45 48 49 52 53 SECT   
X4 21 22 25 26 29 30 33 34 37 38 41 42 45 46 49 50 53 54 SECT   
X5 22 2 26 4 30 6 34 8 38 10 42 12 46 14 50 16 54 18 SECT       
.ENDS CE2
*************
.SUBCKT CEE1 1 2 3 4 5 6 7 8 9 10 11 12 13 14 15 16 17 18       
*PORTS c1A c1B c2A c2B c3A c3B c4A c4B c5A c5B c6A c6B c7A c7B  
*PORTS c8A c8B c9A c9B  
*LENGTH 0.002032
.SUBCKT SECT 19 2 20 4 21 6 22 8 23 10 24 12 25 14 26 16 27 18  
R11 19 1 1.644294E-03   
R22 20 3 1.657299E-03   
R33 21 5 1.661363E-03   
R44 22 7 1.662989E-03   
R55 23 9 1.663395E-03   
R66 24 11 1.662989E-03  
R77 25 13 1.661770E-03  
R88 26 15 1.657706E-03  
R99 27 17 1.645107E-03  
L11 1 2 1.083462E-09    
L22 3 4 1.080211E-09    
L33 5 6 1.079398E-09    
L44 7 8 1.079398E-09    
L55 9 10 1.079805E-09   
L66 11 12 1.080618E-09  
L77 13 14 1.081431E-09  
L88 15 16 1.083462E-09  
L99 17 18 1.087526E-09  
C11 2 0 4.148527E-16    
C22 4 0 2.192532E-16    
C33 6 0 1.827571E-16    
C44 8 0 1.671122E-16    
C55 10 0 1.589025E-16   
C66 12 0 1.665423E-16   
C77 14 0 1.776784E-16   
C88 16 0 2.143358E-16   
C99 18 0 3.974177E-16   
K12 L11 L22 8.809175E-01
C12 2 4 6.904736E-15    
K13 L11 L33 8.327711E-01
C13 2 6 1.526845E-15    
K14 L11 L44 8.030829E-01
C14 2 8 8.591296E-16    
K15 L11 L55 7.815153E-01
C15 2 10 5.848096E-16   
K16 L11 L66 7.646955E-01
C16 2 12 4.385056E-16   
K17 L11 L77 7.512674E-01
C17 2 14 3.623056E-16   
K18 L11 L88 7.393098E-01
C18 2 16 3.404413E-16   
K19 L11 L99 7.285674E-01
C19 2 18 5.084064E-16   
K23 L22 L33 8.810689E-01
C23 4 6 6.071616E-15    
K24 L22 L44 8.332707E-01
C24 4 8 1.080211E-15    
K25 L22 L55 8.037629E-01
C25 4 10 5.661152E-16   
K26 L22 L66 7.823961E-01
C26 4 12 3.771392E-16   
K27 L22 L77 7.655575E-01
C27 4 14 2.853741E-16   
K28 L22 L88 7.516913E-01
C28 4 16 2.479446E-16   
K29 L22 L99 7.394118E-01
C29 4 18 3.410509E-16   
K34 L33 L44 8.810241E-01
C34 6 8 5.961888E-15    
K35 L33 L55 8.334274E-01
C35 6 10 1.013968E-15   
K36 L33 L66 8.037630E-01
C36 6 12 5.254752E-16   
K37 L33 L77 7.823964E-01
C37 6 14 3.561283E-16   
K38 L33 L88 7.658789E-01
C38 6 16 2.856179E-16   
K39 L33 L99 7.513181E-01
C39 6 18 3.634029E-16   
K45 L44 L55 8.812346E-01
C45 8 10 5.933440E-15   
K46 L44 L66 8.334903E-01
C46 8 12 9.993376E-16   
K47 L44 L77 8.038371E-01
C47 8 14 5.254752E-16   
K48 L44 L88 7.824140E-01
C48 8 16 3.778707E-16   
K49 L44 L99 7.651967E-01
C49 8 18 4.405376E-16   
K56 L55 L66 8.811136E-01
C56 10 12 5.933440E-15  
K57 L55 L77 8.333962E-01
C57 10 14 1.013562E-15  
K58 L55 L88 8.036832E-01
C58 10 16 5.669280E-16  
K59 L55 L99 7.819288E-01
C59 10 18 5.860288E-16  
K67 L66 L77 8.812031E-01
C67 12 14 5.961888E-15  
K68 L66 L88 8.334279E-01
C68 12 16 1.080618E-15  
K69 L66 L99 8.033780E-01
C69 12 18 8.607552E-16  
K78 L77 L88 8.811717E-01
C78 14 16 6.071616E-15  
K79 L77 L99 8.334302E-01
C79 14 18 1.529283E-15  
K89 L88 L99 8.813193E-01
C89 16 18 6.908801E-15  
.ENDS SECT      
X1 1 19 3 23 5 27 7 31 9 35 11 39 13 43 15 47 17 51 SECT
X2 19 20 23 24 27 28 31 32 35 36 39 40 43 44 47 48 51 52 SECT   
X3 20 21 24 25 28 29 32 33 36 37 40 41 44 45 48 49 52 53 SECT   
X4 21 22 25 26 29 30 33 34 37 38 41 42 45 46 49 50 53 54 SECT   
X5 22 2 26 4 30 6 34 8 38 10 42 12 46 14 50 16 54 18 SECT       
.ENDS CEE1
*****************
.SUBCKT CE5 1 2 3 4 5 6 7 8 9 10 11 12 13 14 15 16 17 18
*PORTS c1A c1B c2A c2B c3A c3B c4A c4B c5A c5B c6A c6B c7A c7B  
*PORTS c8A c8B c9A c9B  
*LENGTH 0.001524
.SUBCKT SECT 19 2 20 4 21 6 22 8 23 10 24 12 25 14 26 16 27 18  
R11 19 1 1.184758E-03   
R22 20 3 1.185672E-03   
R33 21 5 1.186891E-03   
R44 22 7 1.186891E-03   
R55 23 9 1.187501E-03   
R66 24 11 1.186891E-03  
R77 25 13 1.186891E-03  
R88 26 15 1.185672E-03  
R99 27 17 1.184758E-03  
L11 1 2 8.135111E-10    
L22 3 4 8.086343E-10    
L33 5 6 8.125968E-10    
L44 7 8 8.083296E-10    
L55 9 10 8.129016E-10   
L66 11 12 8.092439E-10  
L77 13 14 8.141208E-10  
L88 15 16 8.113776E-10  
L99 17 18 8.165592E-10  
C11 2 0 2.841348E-16    
C22 4 0 2.116531E-16    
C33 6 0 1.160373E-16    
C44 8 0 1.297842E-16    
C55 10 0 9.768855E-17   
C66 12 0 1.288395E-16   
C77 14 0 1.146354E-16   
C88 16 0 2.045206E-16   
C99 18 0 2.759049E-16   
K12 L11 L22 8.376589E-01
C12 2 4 2.099157E-15    
K13 L11 L33 8.262420E-01
C13 2 6 1.531620E-15    
K14 L11 L44 7.897053E-01
C14 2 8 3.493008E-16    
K15 L11 L55 7.758621E-01
C15 2 10 3.410712E-16   
K16 L11 L66 7.565767E-01
C16 2 12 1.662989E-16   
K17 L11 L77 7.460675E-01
C17 2 14 2.039722E-16   
K18 L11 L88 7.326962E-01
C18 2 16 1.874520E-16   
K19 L11 L99 7.247581E-01
C19 2 18 2.898648E-16   
K23 L22 L33 8.377540E-01
C23 4 6 1.526743E-15    
K24 L22 L44 8.256363E-01
C24 4 8 1.402080E-15    
K25 L22 L55 7.898524E-01
C25 4 10 2.315565E-16   
K26 L22 L66 7.750566E-01
C26 4 12 2.895295E-16   
K27 L22 L77 7.569540E-01