**********
Lossy Coupled Transmission Line Subcircuits 

Made with Mutlidec, available on the CADD/CAM/CAE Intusoft Forum on
CompuServe

Listed below are subcircuits that model 2 and 3-conductor 
coupled transmission lines with the following parameters: 
line parameters l=2e-008, c=1e-012, r=0.1, g=0
inductive_coeff_of_coupling k=0.25
inter-line capacitance cm=4.46e-013
length=50. 

It is important to note that the model is a simplified one - the
following assumptions are made: 1. The self-inductance l, the
self-capacitance ctot (note: not c), the series resistance r and the
parallel capacitance g are the same for all lines, and 2. Each line
is coupled only to the two lines adjacent to it, with the same
coupling parameters cm and lm. The first assumption implies that edge
effects have to be neglected. The utility of these assumptions is
that they make the sL+R and sC+G matrices symmetric, tridiagonal and
Toeplitz, with useful consequences (see "Efficient Transient
Simulation of Lossy Interconnect", by J.S.  Roychowdhury and
D.O Pederson, Proc. DAC 91).

It may be noted that a symmetric two-conductor line is
represented accurately by this model.

Subckt node convention:

           |--------------------------|
     1-----|                          |-----n+1
     2-----|                          |-----n+2
        :  |   n-wire multiconductor  |  :
        :  |          line            |  :
   n-1-----|(node 0=common gnd plane) |-----2n-1
     n-----|                          |-----2n
           |--------------------------|
**********
*SRC=O2LINE;O2LINE;Interconnects;Coupled Lines;2 conductor
*SYM=O2LINE
*Subckt for a 2 conductor transmission line. To use this subcircuit on a 
*schematic, use a standard O (lossy line) symbol and change the reference
*designation from an O to an X. Add the line *INCLUDE COUPLED.LIB.
.subckt O2LINE 1 2 3 4
x1 1 2 5 6 m_test
o1 5 0 7 0 mod1_test
o2 6 0 8 0 mod2_test
x2 3 4 7 8 m_test
.model mod1_test ltra rel=1.2 nocontrol r=0.1 l=1.5e-008 g=0 c=1.892e-012 len=50
.model mod2_test ltra rel=1.2 nocontrol r=0.1 l=2.5e-008 g=0 c=1e-012 len=50
.ends
.subckt m_test 1 2 3 4
v1 5 0 0v
v2 6 0 0v
f1 0 3 v1 0.707106781187
f2 0 3 v2 -0.707106781187
f3 0 4 v1 0.707106781187
f4 0 4 v2 0.707106781187
e1 7 5 3 0 0.707106781187
e2 1 7 4 0 0.707106781187
e3 8 6 3 0 -0.707106781187
e4 2 8 4 0 0.707106781187
* subcircuit m_test - modal transformation network for test
.ends
**********
*SRC=O3LINE;O3LINE;Interconnects;Coupled Lines;3 conductor
*SYM=O3LINE
*Subckt for a 3 conductor transmission line.
.subckt O3line 1 2 3 4 5 6
x1 1 2 3 7 8 9 m_3line
o1 7 0 10 0 mod1_3line
o2 8 0 11 0 mod2_3line
o3 9 0 12 0 mod3_3line
x2 4 5 6 10 11 12 m_3line
* Lossy line models
.model mod1_3line ltra rel=1.2 nocontrol r=0.1 l=1.29289321881e-008 g=0 c=2.52273924882e-012 len=50
.model mod2_3line ltra rel=1.2 nocontrol r=0.1 l=2e-008 g=0 c=1.892e-012 len=50
.model mod3_3line ltra rel=1.2 nocontrol r=0.1 l=2.70710678119e-008 g=0 c=1.26126075118e-012 len=50
.ends
* subcircuit m_3line - modal transformation network for 3line
.subckt m_3line 1 2 3 4 5 6
v1 7 0 0v
v2 8 0 0v
v3 9 0 0v
f1 0 4 v1 0.5
f2 0 4 v2 -0.707106781187
f3 0 4 v3 0.5
f4 0 5 v1 0.707106781187
f5 0 5 v2 -2.22044604925e-016
f6 0 5 v3 -0.707106781187
f7 0 6 v1 0.5
f8 0 6 v2 0.707106781187
f9 0 6 v3 0.5
e1 10 7 4 0 0.5
e2 11 10 5 0 0.707106781187
e3 1 11 6 0 0.5
e4 12 8 4 0 -0.707106781187
e5 13 12 5 0 -8.65927457072e-017
e6 2 13 6 0 0.707106781187
e7 14 9 4 0 0.5
e8 15 14 5 0 -0.707106781187
e9 3 15 6 0 0.5
.ends
**********
