
**************************************
*      Model Generated by MODPEX     *
*Copyright(c) Symmetry Design Systems*
*         All Rights Reserved        *
*    UNPUBLISHED LICENSED SOFTWARE   *
*   Contains Proprietary Information *
*      Which is The Property of      *
*     SYMMETRY OR ITS LICENSORS      *
*Commercial Use or Resale Restricted *
*   by Symmetry License Agreement    *
*   D44VH10 - NPN - BJT      *
**************************************
* Model generated on Jun 24, 97
* MODEL FORMAT: PSpice
.MODEL Qd44vh10 npn
+IS=1.5924e-11 BF=209.177 NF=1.07354 VAF=12.1788
+IKF=9.5742 ISE=4.02776e-12 NE=3.48883 BR=3.61618
+NR=1.13992 VAR=3.42328 IKR=9.17 ISC=6.24937e-13
+NC=3.89183 RB=7.03066 IRB=0.00661779 RBM=0.0001
+RE=0.000287381 RC=0.0254935 XTB=0.11638 XTI=1.14881
+EG=1.14448 CJE=2.04918e-09 VJE=0.0550351 MJE=0.23
+TF=1.33645e-09 XTF=1000 VTF=1951.84 ITF=197.386
+CJC=3.47621e-10 VJC=0.0687977 MJC=0.257396 XCJC=0.880035
+FC=0.8 CJS=0 VJS=0.75 MJS=0.5
+TR=1.67273e-07 PTF=0 KF=0 AF=1


