* DIGITAL LIBRARY 7400-
*
* ----------------------------------------------------------- 7400 ------
*  Quad 2-Input Nand Gates
*
*  The TTL Logic Data Book, 1988, TI Pages 2-3 to 2-7
*  bss    2/2/94
*
.SUBCKT 7400  1A 1B 1Y
+     optional: DPWR=$G_DPWR DGND=$G_DGND
+     params: MNTYMXDLY=0 IO_LEVEL=0

U1 nand(2) DPWR DGND
+     1A 1B 1Y
+     DLY_00 IO_STD MNTYMXDLY={MNTYMXDLY} IO_LEVEL={IO_LEVEL}

.model DLY_00 ugate (tplhTY=11ns tplhMX=22ns tphlTY=7ns tphlMX=15ns)

.ENDS  7400
*
*
* ----------------------------------------------------------- 74AC00 ------
*  Quad 2-Input Nand Gate
*
*  NS FACT Advanced CMOS Logic Data Book, 1989
*  jds 2-10-94    Pages 4-5 to 4-8
*
.SUBCKT  74AC00   A0  B0  O0BAR
+  optional: DPWR=$G_DPWR DGND=$G_DGND
+  params: MNTYMXDLY=0 IO_LEVEL=0

u1 nand(2) DPWR DGND
+  A0  B0  O0BAR
+  DLY_MOD IO_AC MNTYMXDLY={MNTYMXDLY} IO_LEVEL={IO_LEVEL}

.model DLY_MOD ugate (
+  TplhMN= 1.5ns     TplhTY= 6.0ns    TplhMX= 8.0ns
+  TphlMN= 1.5ns     TphlTY= 4.5ns    TphlMX= 6.5ns
+  )

.ENDS  74AC00
*
*
* ----------------------------------------------------------- 74ACT00 ------
*  Quad 2-Input Nand Gate
*
*  NS FACT Advanced CMOS Logic Data Book, 1989
*  jds 2-10-94      Pages 4-5 to 4-8
*
.SUBCKT  74ACT00   A0  B0  O0BAR
+  optional: DPWR=$G_DPWR DGND=$G_DGND
+  params: MNTYMXDLY=0 IO_LEVEL=0

u1 nand(2) DPWR DGND
+  A0  B0  O0BAR
+  DLY_MOD IO_ACT MNTYMXDLY={MNTYMXDLY} IO_LEVEL={IO_LEVEL}

.model DLY_MOD ugate (
+  TplhMN= 1.5ns     TplhTY= 5.5ns    TplhMX= 9.0ns
+  TphlMN= 1.5ns     TphlTY= 4.0ns    TphlMX= 7.0ns
+  )

.ENDS  74ACT00

* -----------------------------------------------------------74ALS00------

* Quadruple 2-Input Positive NAND Gate
* Motorola Schottky TTL Data Book,1983, pages 5-2 to 5-3
* jat 8/20/96    

.SUBCKT 74ALS00 1A 1B 1Y
+ OPTIONAL: DPWR=$G_DPWR DGND=$G_DGND
+ PARAMS: MNTYMXDLY=0 IO_LEVEL=0

U1 NAND(2) DPWR DGND
+ 1A 1B 1Y
+ DLY_ALS00 IO_ALS00 MNTYMXDLY={MNTYMXDLY} IO_LEVEL={IO_LEVEL}

.MODEL DLY_ALS00 UGATE (TPLHTY=4NS TPHLTY=3NS)

.ENDS 74ALS00

* ----------------------------------------------------------- 74ALS00A ------
*  Quad 2-Input Nand Gates
*
*  The ALS/AS Logic Data Book, 1986, TI Pages 2-3 to 2-5
*  bss    2/16/94
*
.SUBCKT 74ALS00A  1A 1B 1Y
+     optional: DPWR=$G_DPWR DGND=$G_DGND
+     params: MNTYMXDLY=0 IO_LEVEL=0

U1 nand(2) DPWR DGND
+     1A 1B 1Y
+     DLY_ALS00 IO_ALS00 MNTYMXDLY={MNTYMXDLY} IO_LEVEL={IO_LEVEL}

.model DLY_ALS00 ugate (tplhMN=3ns tplhMX=11ns tphlMN=2ns tphlMX=8ns)

.ENDS  74ALS00A
*
*
* ----------------------------------------------------------- 74AS00 ------
*  Quad 2-Input Nand Gates
*
*  The ALS/AS Logic Data Book, 1986, TI Pages 2-3 to 2-5
*  bss    2/16/94
*
.SUBCKT 74AS00  1A 1B 1Y
+     optional: DPWR=$G_DPWR DGND=$G_DGND
+     params: MNTYMXDLY=0 IO_LEVEL=0

U1 nand(2) DPWR DGND
+     1A 1B 1Y
+     DLY_AS00 IO_AS00 MNTYMXDLY={MNTYMXDLY} IO_LEVEL={IO_LEVEL}

.model DLY_AS00 ugate (tplhMN=1ns tplhMX=4.5ns tphlMN=1ns tphlMX=4ns)

.ENDS  74AS00
*
*
* ----------------------------------------------------------- 74F00 ------
*  Quad 2-Input Nand Gate
*
*  NS FAST Advanced Schottky TTL  Data Book, 1988
*  jds 2-2-94     Pages 4-6 to 4-8
*
.SUBCKT  74F00   A0  B0  O0BAR
+  optional: DPWR=$G_DPWR DGND=$G_DGND
+  params: MNTYMXDLY=0 IO_LEVEL=0

u1 nand(2) DPWR DGND
+  A0  B0  O0BAR
+  DLY_MOD IO_F MNTYMXDLY={MNTYMXDLY} IO_LEVEL={IO_LEVEL}

.model DLY_MOD ugate (
+  TplhMN= 2.4ns     TplhTY= 3.7ns    TplhMX= 5.0ns
+  TphlMN= 1.5ns     TphlTY= 3.2ns    TphlMX= 4.3ns
+  )

.ENDS  74F00
*
*
* ----------------------------------------------------------- 74H00 ------
*  Quad 2-Input Nand Gates
*
*  The TTL Data Book, Vol. 2, 1985, TI Pages 3-3 to 3-9
*  bss    2/3/94
*
.SUBCKT 74H00  1A 1B 1Y
+     optional: DPWR=$G_DPWR DGND=$G_DGND
+     params: MNTYMXDLY=0 IO_LEVEL=0

U1 nand(2) DPWR DGND
+     1A 1B 1Y
+     DLY_H00 IO_H MNTYMXDLY={MNTYMXDLY} IO_LEVEL={IO_LEVEL}

.model DLY_H00 ugate (tplhTY=5.9ns tplhMX=10ns tphlTY=6.2ns tphlMX=10ns)

.ENDS  74H00
*
*
* ----------------------------------------------------------- 74HC00 ------
*  Quad 2-Input Nand Gates
*
*  The High-Speed CMOS Logic Data Book, 1989, TI Pages 2-3 to 2-5
*  bss    2/3/94
*
.SUBCKT 74HC00  1A 1B 1Y
+     optional: DPWR=$G_DPWR DGND=$G_DGND
+     params: MNTYMXDLY=0 IO_LEVEL=0

U1 nand(2) DPWR DGND
+     1A 1B 1Y
+     DLY_HC00 IO_HC MNTYMXDLY={MNTYMXDLY} IO_LEVEL={IO_LEVEL}

.model DLY_HC00 ugate (tplhTY=9ns tplhMX=18ns tphlTY=9ns tphlMX=18ns)

.ENDS  74HC00

* -----------------------------------------------------------74HC00A------

* Quad 2-Input NAND Gate
* Motorola High-Speed CMOS Data, 1993, pages 5-2 to 5-4
* jat 9/3/96    

.SUBCKT 74HC00A A1 B1 Y1
+ OPTIONAL: DPWR=$G_DPWR DGND=$G_DGND
+ PARAMS: MNTYMXDLY=0 IO_LEVEL=0

U1 NAND(2) DPWR DGND
+ A1 B1 Y1
+ DLY_HC00A IO_HC MNTYMXDLY={MNTYMXDLY} IO_LEVEL={IO_LEVEL}

.MODEL DLY_HC00A UGATE (TPLHMX=15NS TPHLMX=15NS)

.ENDS 74HC00A

* ----------------------------------------------------------- 74HCT00 ------
*  Quad 2-Input Nand Gates
*
*  The High-Speed CMOS Logic Data Book, 1989, TI Pages 2-7 to 2-8
*  jat 12/28/95    
*
.SUBCKT 74HCT00  1A 1B 1Y
+     optional: DPWR=$G_DPWR DGND=$G_DGND
+     params: MNTYMXDLY=0 IO_LEVEL=0

U1 nand(2) DPWR DGND
+     1A 1B 1Y
+     DLY_HCT00 IO_HCT MNTYMXDLY={MNTYMXDLY} IO_LEVEL={IO_LEVEL}

.model DLY_HCT00 ugate (tplhTY=11ns tplhMX=20ns tphlTY=11ns tphlMX=20ns)

.ENDS  74HCT00

* -----------------------------------------------------------74HCT00A------

* Quad 2-Input NAND Gate
* Motorola High-Speed CMOS Data, 1993, pages 5-5 to 5-7
* jat 9/3/96    

.SUBCKT 74HCT00A A1 B1 Y1
+ OPTIONAL: DPWR=$G_DPWR DGND=$G_DGND
+ PARAMS: MNTYMXDLY=0 IO_LEVEL=0

U1 NAND(2) DPWR DGND
+ A1 B1 Y1
+ DLY_HCT00A IO_HCT MNTYMXDLY={MNTYMXDLY} IO_LEVEL={IO_LEVEL}

.MODEL DLY_HCT00A UGATE (TPLHMX=19NS TPHLMX=19NS)

.ENDS 74HCT00A

* ----------------------------------------------------------- 74LS00 ------
*  Quad 2-Input Nand Gates
*
*  The TTL Logic Data Book, 1988, TI Pages 2-3 to 2-7
*  bss    2/2/94
*
.SUBCKT 74LS00  1A 1B 1Y
+     optional: DPWR=$G_DPWR DGND=$G_DGND
+     params: MNTYMXDLY=0 IO_LEVEL=0

U1 nand(2) DPWR DGND
+     1A 1B 1Y
+     DLY_LS00 IO_LS MNTYMXDLY={MNTYMXDLY} IO_LEVEL={IO_LEVEL}

.model DLY_LS00 ugate (tplhTY=9ns tplhMX=15ns tphlTY=10ns tphlMX=15ns)

.ENDS  74LS00
*
*
* ----------------------------------------------------------- 74S00 ------
*  Quad 2-Input Nand Gates
*
*  The TTL Logic Data Book, 1988, TI Pages 2-3 to 2-7
*  bss    2/2/94
*
.SUBCKT 74S00  1A 1B 1Y
+     optional: DPWR=$G_DPWR DGND=$G_DGND
+     params: MNTYMXDLY=0 IO_LEVEL=0

U1 nand(2) DPWR DGND
+     1A 1B 1Y
+     DLY_S00 IO_S MNTYMXDLY={MNTYMXDLY} IO_LEVEL={IO_LEVEL}

.model DLY_S00 ugate (tplhTY=3ns tplhMX=4.5ns tphlTY=3ns tphlMX=5ns)

.ENDS  74S00
*
*
* ----------------------------------------------------------- 7401 ------
*  Quad 2-Input Nand Gates With Open-Collector Outputs
*
*  The TTL Logic Data Book, 1988, TI Pages 2-9 to 2-12
*  bss    2/3/94
*
.SUBCKT 7401  1A 1B 1Y
+     optional: DPWR=$G_DPWR DGND=$G_DGND
+     params: MNTYMXDLY=0 IO_LEVEL=0

U1 nand(2) DPWR DGND
+     1A 1B 1Y
+     DLY_01 IO_STD_OC MNTYMXDLY={MNTYMXDLY} IO_LEVEL={IO_LEVEL}

.model DLY_01 ugate (tplhTY=35ns tplhMX=55ns tphlTY=8ns tphlMX=15ns)

.ENDS  7401
*
*
* ----------------------------------------------------------- 74ALS01 ------
*  Quad 2-Input Nand Gates With Open-Collector Outputs
*
*  The ALS/AS Logic Data Book, 1986, TI Pages 2-7 to 2-8
*  bss    2/16/94
*
.SUBCKT 74ALS01  1A 1B 1Y
+     optional: DPWR=$G_DPWR DGND=$G_DGND
+     params: MNTYMXDLY=0 IO_LEVEL=0

U1 nand(2) DPWR DGND
+     1A 1B 1Y
+     DLY_ALS01 IO_ALS00_OC MNTYMXDLY={MNTYMXDLY} IO_LEVEL={IO_LEVEL}

.model DLY_ALS01 ugate (tplhMN=23ns tplhMX=54ns tphlMN=8ns tphlMX=28ns)

.ENDS  74ALS01
*
*
* ----------------------------------------------------------- 74H01 ------
*  Quad 2-Input Nand Gates With Open-Collector Outputs
*
*  The TTL Data Book, Vol. 2, 1985, TI Pages 3-11 to 3-15
*  bss    2/3/94
*
.SUBCKT 74H01  1A 1B 1Y
+     optional: DPWR=$G_DPWR DGND=$G_DGND
+     params: MNTYMXDLY=0 IO_LEVEL=0

U1 nand(2) DPWR DGND
+     1A 1B 1Y
+     DLY_H01 IO_H_OC MNTYMXDLY={MNTYMXDLY} IO_LEVEL={IO_LEVEL}

.model DLY_H01 ugate (tplhTY=10ns tplhMX=15ns tphlTY=7.5ns tphlMX=12ns)

.ENDS  74H01
*
*
* ----------------------------------------------------------- 74HC01 ------
*  Quad 2-Input Nand Gates With Open-Drain Outputs
*
*  The High-Speed CMOS Logic Data Book, 1989, TI Pages 2-9 to 2-11
*  bss    2/3/94
*
.SUBCKT 74HC01  1A 1B 1Y
+     optional: DPWR=$G_DPWR DGND=$G_DGND
+     params: MNTYMXDLY=0 IO_LEVEL=0

U1 nand(2) DPWR DGND
+     1A 1B 1Y
+     DLY_HC01 IO_HC_OC MNTYMXDLY={MNTYMXDLY} IO_LEVEL={IO_LEVEL}

.model DLY_HC01 ugate (tplhTY=13ns tplhMX=25ns tphlTY=10ns tphlMX=20ns)

.ENDS  74HC01
*
*
* ----------------------------------------------------------- 74LS01 ------
*  Quad 2-Input Nand Gates With Open-Collector Outputs
*
*  The TTL Logic Data Book, 1988, TI Pages 2-9 to 2-12
*  bss    2/3/94
*
.SUBCKT 74LS01  1A 1B 1Y
+     optional: DPWR=$G_DPWR DGND=$G_DGND
+     params: MNTYMXDLY=0 IO_LEVEL=0

U1 nand(2) DPWR DGND
+     1A 1B 1Y
+     DLY_LS01 IO_LS_OC MNTYMXDLY={MNTYMXDLY} IO_LEVEL={IO_LEVEL}

.model DLY_LS01 ugate (tplhTY=17ns tplhMX=32ns tphlTY=15ns tphlMX=28ns)

.ENDS  74LS01
*
*
* ----------------------------------------------------------- 7402 ------
*  Quad 2-Input Nor Gates
*
*  The TTL Logic Data Book, 1988, TI Pages 2-13 to 2-17
*  bss    2/3/94
*
.SUBCKT 7402  1A 1B 1Y
+     optional: DPWR=$G_DPWR DGND=$G_DGND
+     params: MNTYMXDLY=0 IO_LEVEL=0

U1 nor(2) DPWR DGND
+     1A 1B 1Y
+     DLY_02 IO_STD MNTYMXDLY={MNTYMXDLY} IO_LEVEL={IO_LEVEL}

.model DLY_02 ugate (tplhTY=12ns tplhMX=22ns tphlTY=8ns tphlMX=15ns)

.ENDS  7402
*
*
* ----------------------------------------------------------- 74AC02 ------
*  Quad 2-Input Nor Gate
*
*  NS FACT Advanced CMOS Logic Data Book, 1989
*  jds 2-10-94      Pages 4-9 to 4-11
*
.SUBCKT  74AC02   A0  B0  O0BAR
+  optional: DPWR=$G_DPWR DGND=$G_DGND
+  params: MNTYMXDLY=0 IO_LEVEL=0

u1 nor(2) DPWR DGND
+  A0  B0  O0BAR
+  DLY_MOD IO_AC MNTYMXDLY={MNTYMXDLY} IO_LEVEL={IO_LEVEL}

.model DLY_MOD ugate (
+  TplhMN= 1.5ns     TplhTY= 4.0ns    TplhMX= 6.0ns
+  TphlMN= 1.5ns     TphlTY= 4.5ns    TphlMX= 6.5ns
+  )

.ENDS  74AC02
*
*
* ----------------------------------------------------------- 74ACT02 ------
*  Quad 2-Input Nor Gates
*
*  The Advanced CMOS Logic Data Book, 1993, TI Pages 2-15 to 2-17
*  bss    3/28/94
*  This part is shown in the data book as a 74ACT11002
*
.SUBCKT 74ACT02  1A 1B 1Y
+     optional: DPWR=$G_DPWR DGND=$G_DGND
+     params: MNTYMXDLY=0 IO_LEVEL=0

U1 nor(2) DPWR DGND
+     1A 1B 1Y
+     DLY_ACT02 IO_ACT MNTYMXDLY={MNTYMXDLY} IO_LEVEL={IO_LEVEL}

.model DLY_ACT02 ugate (tplhMN=1.5ns tplhTY=6.1ns tplhMX=9.4ns tphlMN=1.5ns  
+                               tphlTY=5.3ns tphlMX=7.8ns)

.ENDS  74ACT02
*
*
* ----------------------------------------------------------- 74ALS02 ------
*  Quad 2-Input Nor Gates
*
*  The ALS/AS Logic Data Book, 1986, TI Pages 2-9 to 2-11
*  bss    2/16/94
*
.SUBCKT 74ALS02  1A 1B 1Y
+     optional: DPWR=$G_DPWR DGND=$G_DGND
+     params: MNTYMXDLY=0 IO_LEVEL=0

U1 nor(2) DPWR DGND
+     1A 1B 1Y
+     DLY_ALS02 IO_ALS00 MNTYMXDLY={MNTYMXDLY} IO_LEVEL={IO_LEVEL}

.model DLY_ALS02 ugate (tplhMN=3ns tplhMX=12ns tphlMN=3ns tphlMX=10ns)

.ENDS  74ALS02
*
*
* ----------------------------------------------------------- 74AS02 ------
*  Quad 2-Input Nor Gates
*
*  The ALS/AS Logic Data Book, 1986, TI Pages 2-9 to 2-11
*  bss    2/16/94
*
.SUBCKT 74AS02  1A 1B 1Y
+     optional: DPWR=$G_DPWR DGND=$G_DGND
+     params: MNTYMXDLY=0 IO_LEVEL=0

U1 nor(2) DPWR DGND
+     1A 1B 1Y
+     DLY_AS02 IO_AS00 MNTYMXDLY={MNTYMXDLY} IO_LEVEL={IO_LEVEL}

.model DLY_AS02 ugate (tplhMN=1ns tplhMX=4.5ns tphlMN=1ns tphlMX=4.5ns)

.ENDS  74AS02
*
*
* ----------------------------------------------------------- 74F02 ------
*  Quad 2-Input Nor Gate
*
*  NS FAST Advanced Schottky TTL  Data Book, 1988
*  jds 2-2-94       Pages 4-9 to 4-11
*
.SUBCKT  74F02   A0  B0  O0BAR
+  optional: DPWR=$G_DPWR DGND=$G_DGND
+  params: MNTYMXDLY=0 IO_LEVEL=0

u1 nor(2) DPWR DGND
+  A0  B0  O0BAR
+  DLY_MOD IO_F MNTYMXDLY={MNTYMXDLY} IO_LEVEL={IO_LEVEL}

.model DLY_MOD ugate (
+  TplhMN= 2.5ns     TplhTY= 4.4ns    TplhMX= 5.5ns
+  TphlMN= 1.5ns     TphlTY= 3.2ns    TphlMX= 4.3ns
+  )

.ENDS  74F02
*
*
* ----------------------------------------------------------- 74HC02 ------
*  Quad 2-Input Nor Gates
*
*  The High-Speed CMOS Logic Data Book, 1989, TI Pages 2-13 to 2-15
*  bss    2/3/94
*
.SUBCKT 74HC02  1A 1B 1Y
+     optional: DPWR=$G_DPWR DGND=$G_DGND
+     params: MNTYMXDLY=0 IO_LEVEL=0

U1 nor(2) DPWR DGND
+     1A 1B 1Y
+     DLY_HC02 IO_HC MNTYMXDLY={MNTYMXDLY} IO_LEVEL={IO_LEVEL}

.model DLY_HC02 ugate (tplhTY=9ns tplhMX=18ns tphlTY=9ns tphlMX=18ns)

.ENDS  74HC02

* -----------------------------------------------------------74HC02A------

* Quad 2-Input NOR Gate
* Motorola High-Speed CMOS Data, 1993, pages 5-8 to 5-10
* jat 9/3/96    

.SUBCKT 74HC02A A1 B1 Y1
+ OPTIONAL: DPWR=$G_DPWR DGND=$G_DGND
+ PARAMS: MNTYMXDLY=0 IO_LEVEL=0

U1 NOR(2) DPWR DGND
+ A1 B1 Y1
+ DLY_HC02A IO_HC MNTYMXDLY={MNTYMXDLY} IO_LEVEL={IO_LEVEL}

.MODEL DLY_HC02A UGATE (TPLHMX=16NS TPHLMX=16NS)

.ENDS 74HC02A

* ----------------------------------------------------------- 74HCT02 ------
*  Quad 2-Input Nor Gates
*
*  The High-Speed CMOS Logic Data Book, 1989, TI Pages 2-17 to 2-18
*  JAT 12/28/95
*
.SUBCKT 74HCT02  1A 1B 1Y
+     optional: DPWR=$G_DPWR DGND=$G_DGND
+     params: MNTYMXDLY=0 IO_LEVEL=0

U1 nor(2) DPWR DGND
+     1A 1B 1Y
+     DLY_HCT02 IO_HCT MNTYMXDLY={MNTYMXDLY} IO_LEVEL={IO_LEVEL}

.model DLY_HCT02 ugate (tplhTY=11ns tplhMX=20ns tphlTY=11ns tphlMX=20ns)

.ENDS  74HCT02

* ----------------------------------------------------------- 74LS02 ------
*  Quad 2-Input Nor Gates
*
*  The TTL Logic Data Book, 1988, TI Pages 2-13 to 2-17
*  bss    2/3/94
*
.SUBCKT 74LS02  1A 1B 1Y
+     optional: DPWR=$G_DPWR DGND=$G_DGND
+     params: MNTYMXDLY=0 IO_LEVEL=0

U1 nor(2) DPWR DGND
+     1A 1B 1Y
+     DLY_LS02 IO_LS MNTYMXDLY={MNTYMXDLY} IO_LEVEL={IO_LEVEL}

.model DLY_LS02 ugate (tplhTY=10ns tplhMX=15ns tphlTY=10ns tphlMX=15ns)

.ENDS  74LS02
*
*
* ----------------------------------------------------------- 74S02 ------
*  Quad 2-Input Nor Gates
*
*  The TTL Logic Data Book, 1988, TI Pages 2-13 to 2-17
*  bss    2/3/94
*
.SUBCKT 74S02  1A 1B 1Y
+     optional: DPWR=$G_DPWR DGND=$G_DGND
+     params: MNTYMXDLY=0 IO_LEVEL=0

U1 nor(2) DPWR DGND
+     1A 1B 1Y
+     DLY_S02 IO_S MNTYMXDLY={MNTYMXDLY} IO_LEVEL={IO_LEVEL}

.model DLY_S02 ugate (tplhTY=3.5ns tplhMX=5.5ns tphlTY=3.5ns tphlMX=5.5ns)

.ENDS  74S02
*
*
* ----------------------------------------------------------- 7403 ------
*  Quad 2-Input Nand Gates With Open-Collector Outputs
*
*  The TTL Logic Data Book, 1988, TI Pages 2-19 to 2-23
*  bss    2/3/94
*
.SUBCKT 7403  1A 1B 1Y
+     optional: DPWR=$G_DPWR DGND=$G_DGND
+     params: MNTYMXDLY=0 IO_LEVEL=0

U1 nand(2) DPWR DGND
+     1A 1B 1Y
+     DLY_03 IO_STD_OC MNTYMXDLY={MNTYMXDLY} IO_LEVEL={IO_LEVEL}

.model DLY_03 ugate (tplhTY=35ns tplhMX=45ns tphlTY=8ns tphlMX=15ns)

.ENDS  7403

* -----------------------------------------------------------74ALS03------

* Quadruple 2-Input Positive NAND Gate with Open-Collector Outputs
* Motorola Schottky TTL Data Book,1983, pages 5-6 to 5-7
* jat 8/20/96    

.SUBCKT 74ALS03 1A 1B 1Y
+ OPTIONAL: DPWR=$G_DPWR DGND=$G_DGND
+ PARAMS: MNTYMXDLY=0 IO_LEVEL=0

U1 NAND(2) DPWR DGND
+ 1A 1B 1Y
+ DLY_ALS00 IO_ALS00_OC MNTYMXDLY={MNTYMXDLY} IO_LEVEL={IO_LEVEL}

.MODEL DLY_ALS00 UGATE (TPLHTY=8NS TPHLTY=12NS)

.ENDS 74ALS03

* ----------------------------------------------------------- 74ALS03B ------
*  Quad 2-Input Nand Gates With Open-Collector Outputs
*
*  The ALS/AS Logic Data Book, 1986, TI Pages 2-13 to 2-14
*  bss    2/16/94
*
.SUBCKT 74ALS03B  1A 1B 1Y
+     optional: DPWR=$G_DPWR DGND=$G_DGND
+     params: MNTYMXDLY=0 IO_LEVEL=0

U1 nand(2) DPWR DGND
+     1A 1B 1Y
+     DLY_ALS03 IO_ALS00_OC MNTYMXDLY={MNTYMXDLY} IO_LEVEL={IO_LEVEL}

.model DLY_ALS03 ugate (tplhMN=20ns tplhMX=50ns tphlMN=3ns tphlMX=13ns)

.ENDS  74ALS03B
*
*
* ----------------------------------------------------------- 74HC03 ------
*  Quad 2-Input Nand Gates With Open-Drain Outputs
*
*  The High-Speed CMOS Logic Data Book, 1989, TI Pages 2-19 to 2-21
*  bss    2/3/94
*
.SUBCKT 74HC03  1A 1B 1Y
+     optional: DPWR=$G_DPWR DGND=$G_DGND
+     params: MNTYMXDLY=0 IO_LEVEL=0

U1 nand(2) DPWR DGND
+     1A 1B 1Y
+     DLY_HC03 IO_HC_OC MNTYMXDLY={MNTYMXDLY} IO_LEVEL={IO_LEVEL}

.model DLY_HC03 ugate (tplhTY=13ns tplhMX=25ns tphlTY=10ns tphlMX=20ns)

.ENDS  74HC03

* -----------------------------------------------------------74HC03A------

* Quad 2-Input NAND Gate
* Motorola High-Speed CMOS Data, 1993, pages 5-11 to 5-14
* jat 9/3/96    

.SUBCKT 74HC03A A1 B1 Y1
+ OPTIONAL: DPWR=$G_DPWR DGND=$G_DGND
+ PARAMS: MNTYMXDLY=0 IO_LEVEL=0

U1 NAND(2) DPWR DGND
+ A1 B1 Y1
+ DLY_HC03A IO_HC_OC MNTYMXDLY={MNTYMXDLY} IO_LEVEL={IO_LEVEL}

.MODEL DLY_HC03A UGATE (TPLHMX=24NS TPHLMX=24NS)

.ENDS 74HC03A

* -----------------------------------------------------------74HCT03------

* Quad 2-Input NAND Gate
* Philips high-Speed CMOS Logic Family, 1994, pages 115 to 120
* jat 9/3/96    

.SUBCKT 74HCT03 1A 1B 1Y
+ OPTIONAL: DPWR=$G_DPWR DGND=$G_DGND
+ PARAMS: MNTYMXDLY=0 IO_LEVEL=0

U1 NAND(2) DPWR DGND
+ 1A 1B 1Y
+ DLY_HCT03 IO_HCT_OC MNTYMXDLY={MNTYMXDLY} IO_LEVEL={IO_LEVEL}

.MODEL DLY_HCT03 UGATE (TPLHTY=12NS TPLHMX=24NS TPHLTY=12NS TPHLMX=24NS)

.ENDS 74HCT03

* ----------------------------------------------------------- 74LS03 ------
*  Quad 2-Input Nand Gates With Open-Collector Outputs
*
*  The TTL Logic Data Book, 1988, TI Pages 2-19 to 2-23
*  bss    2/3/94
*
.SUBCKT 74LS03  1A 1B 1Y
+     optional: DPWR=$G_DPWR DGND=$G_DGND
+     params: MNTYMXDLY=0 IO_LEVEL=0

U1 nand(2) DPWR DGND
+     1A 1B 1Y
+     DLY_LS03 IO_LS_OC MNTYMXDLY={MNTYMXDLY} IO_LEVEL={IO_LEVEL}

.model DLY_LS03 ugate (tplhTY=17ns tplhMX=32ns tphlTY=15ns tphlMX=28ns)

.ENDS  74LS03
*
*
* ----------------------------------------------------------- 74S03 ------
*  Quad 2-Input Nand Gates With Open-Collector Outputs
*
*  The TTL Logic Data Book, 1988, TI Pages 2-19 to 2-23
*  bss    2/3/94
*
.SUBCKT 74S03  1A 1B 1Y
+     optional: DPWR=$G_DPWR DGND=$G_DGND
+     params: MNTYMXDLY=0 IO_LEVEL=0

U1 nand(2) DPWR DGND
+     1A 1B 1Y
+     DLY_S03 IO_S_OC MNTYMXDLY={MNTYMXDLY} IO_LEVEL={IO_LEVEL}

.model DLY_S03 ugate (tplhMN=2ns tplhTY=5ns tplhMX=7.5ns tphlMN=2ns tphlTY=4.5ns 
+                                  tphlMX=7ns)

.ENDS  74S03
*
*
* ----------------------------------------------------------- 7404 ------
*  Hex Inverters
*
*  The TTL Logic Data Book, 1988, TI Pages 2-25 to 2-29
*  bss    2/3/94
*
.SUBCKT 7404  1A  1Y
+     optional: DPWR=$G_DPWR DGND=$G_DGND
+     params: MNTYMXDLY=0 IO_LEVEL=0

U1 inv DPWR DGND
+     1A 1Y
+     DLY_04 IO_STD MNTYMXDLY={MNTYMXDLY} IO_LEVEL={IO_LEVEL}

.model DLY_04 ugate (tplhTY=12ns tplhMX=22ns tphlTY=8ns tphlMX=15ns)

.ENDS  7404
*
*
* ----------------------------------------------------------- 74AC04 ------
*  Hex Inverter
*
*  NS FACT Advanced CMOS Logic Data Book, 1989
*  jds 2-10-94      Pages 4-12 to 4-14
*
.SUBCKT  74AC04   A0  O0BAR
+  optional: DPWR=$G_DPWR DGND=$G_DGND
+  params: MNTYMXDLY=0 IO_LEVEL=0

u1 inv DPWR DGND
+  A0  O0BAR
+  DLY_MOD IO_AC MNTYMXDLY={MNTYMXDLY} IO_LEVEL={IO_LEVEL}

.model DLY_MOD ugate (
+  TplhMN= 1.5ns     TplhTY= 4.0ns    TplhMX= 7.0ns
+  TphlMN= 1.5ns     TphlTY= 3.5ns    TphlMX= 6.5ns
+  )

.ENDS  74AC04
*
*
* ----------------------------------------------------------- 74ACT04 ------
*  Hex Inverters
*
*  The Advanced CMOS Logic Data Book, 1993, TI Pages 2-23 to 2-25
*  bss    3/28/94
*  This part is shown in the data book as a 74ACT11004
*
.SUBCKT 74ACT04  1A  1Y
+     optional: DPWR=$G_DPWR DGND=$G_DGND
+     params: MNTYMXDLY=0 IO_LEVEL=0

U1 inv DPWR DGND
+     1A 1Y
+     DLY_ACT04 IO_ACT MNTYMXDLY={MNTYMXDLY} IO_LEVEL={IO_LEVEL}

.model DLY_ACT04 ugate (tplhMN=1.5ns tplhTY=5.3ns tplhMX=9ns tphlMN=1.5ns
+                                 tphlTY=6.4ns tphlMX=8.7ns)

.ENDS  74ACT04

* -----------------------------------------------------------74ALS04------

* Hex Inverters
* Motorola Schottky TTL Data Book,1983, pages 5-8 to 5-9
* jat 8/20/96    

.SUBCKT 74ALS04 1A 1Y
+ OPTIONAL: DPWR=$G_DPWR DGND=$G_DGND
+ PARAMS: MNTYMXDLY=0 IO_LEVEL=0

U1 INV DPWR DGND
+ 1A 1Y
+ DLY_ALS04 IO_ALS00 MNTYMXDLY={MNTYMXDLY} IO_LEVEL={IO_LEVEL}

.MODEL DLY_ALS04 UGATE (TPLHTY=4NS TPHLTY=3NS)

.ENDS 74ALS04

* ----------------------------------------------------------- 74ALS04B ------
*  Hex Inverters
*
*  The ALS/AS Logic Data Book, 1986, TI Pages 2-15 to 2-17
*  bss    2/16/94
*
.SUBCKT 74ALS04B  1A  1Y
+     optional: DPWR=$G_DPWR DGND=$G_DGND
+     params: MNTYMXDLY=0 IO_LEVEL=0

U1 inv DPWR DGND
+     1A 1Y
+     DLY_ALS04 IO_ALS00 MNTYMXDLY={MNTYMXDLY} IO_LEVEL={IO_LEVEL}

.model DLY_ALS04 ugate (tplhMN=3ns tplhMX=11ns tphlMN=2ns tphlMX=8ns)

.ENDS  74ALS04B
*
*
* ----------------------------------------------------------- 74AS04 ------
*  Hex Inverters
*
*  The ALS/AS Logic Data Book, 1986, TI Pages 2-15 to 2-17
*  bss    2/16/94
*
.SUBCKT 74AS04  1A  1Y
+     optional: DPWR=$G_DPWR DGND=$G_DGND
+     params: MNTYMXDLY=0 IO_LEVEL=0

U1 inv DPWR DGND
+     1A 1Y
+     DLY_AS04 IO_AS00 MNTYMXDLY={MNTYMXDLY} IO_LEVEL={IO_LEVEL}

.model DLY_AS04 ugate (tplhMN=1ns tplhMX=5ns tphlMN=1ns tphlMX=4ns)

.ENDS  74AS04
*
*
* ----------------------------------------------------------- 74F04 ------
*  Hex Inverter
*
*  NS FAST Advanced Schottky TTL  Data Book, 1988
*  jds 2-2-94       Pages 4-12 to 4-14
*
.SUBCKT  74F04   A0  O0BAR
+  optional: DPWR=$G_DPWR DGND=$G_DGND
+  params: MNTYMXDLY=0 IO_LEVEL=0

u1 inv DPWR DGND
+  A0  O0BAR
+  DLY_MOD IO_F MNTYMXDLY={MNTYMXDLY} IO_LEVEL={IO_LEVEL}

.model DLY_MOD ugate (
+  TplhMN= 2.4ns     TplhTY= 3.7ns    TplhMX= 5.0ns
+  TphlMN= 1.5ns     TphlTY= 3.2ns    TphlMX= 4.3ns
+  )

.ENDS  74F04
*
*
* ----------------------------------------------------------- 74H04 ------
*  Hex Inverters
*
*  The TTL Data Book, Vol. 2, 1985, TI Pages 3-29 TO 3-35
*  bss    2/3/94
*
.SUBCKT 74H04  1A  1Y
+     optional: DPWR=$G_DPWR DGND=$G_DGND
+     params: MNTYMXDLY=0 IO_LEVEL=0

U1 inv DPWR DGND
+     1A 1Y
+     DLY_H04 IO_H MNTYMXDLY={MNTYMXDLY} IO_LEVEL={IO_LEVEL}

.model DLY_H04 ugate (tplhTY=6ns tplhMX=10ns tphlTY=6.5ns tphlMX=10ns)

.ENDS  74H04
*
*
* ----------------------------------------------------------- 74HC04 ------
*  Hex Inverters
*
*  The High-Speed CMOS Logic Data Book, 1989, TI Pages 2-23 to 2-25
*  bss    2/3/94
*
.SUBCKT 74HC04  1A  1Y
+     optional: DPWR=$G_DPWR DGND=$G_DGND
+     params: MNTYMXDLY=0 IO_LEVEL=0

U1 inv DPWR DGND
+     1A 1Y
+     DLY_HC04 IO_HC MNTYMXDLY={MNTYMXDLY} IO_LEVEL={IO_LEVEL}

.model DLY_HC04 ugate (tplhTY=9ns tplhMX=19ns tphlTY=9ns tphlMX=19ns)

.ENDS  74HC04

* -----------------------------------------------------------74HC04A------

* Hex Inverter
* Motorola High-Speed CMOS Data, 1993, pages 5-15 to 5-17
* jat 9/3/96    

.SUBCKT 74HC04A A1 Y1
+ OPTIONAL: DPWR=$G_DPWR DGND=$G_DGND
+ PARAMS: MNTYMXDLY=0 IO_LEVEL=0

U1 INV DPWR DGND
+ A1 Y1
+ DLY_HC04A IO_HC MNTYMXDLY={MNTYMXDLY} IO_LEVEL={IO_LEVEL}

.MODEL DLY_HC04A UGATE (TPLHMX=15NS TPHLMX=15NS)

.ENDS 74HC04A

* ----------------------------------------------------------- 74HCT04 ------
*  Hex Inverters
*
*  The High-Speed CMOS Logic Data Book, 1989, TI Pages 2-27 to 2-28
*  bss    2/3/94
*
.SUBCKT 74HCT04  1A  1Y
+     optional: DPWR=$G_DPWR DGND=$G_DGND
+     params: MNTYMXDLY=0 IO_LEVEL=0

U1 inv DPWR DGND
+     1A 1Y
+     DLY_HCT04 IO_HCT MNTYMXDLY={MNTYMXDLY} IO_LEVEL={IO_LEVEL}

.model DLY_HCT04 ugate (tplhTY=14ns tplhMX=20ns tphlTY=14ns tphlMX=20ns)

.ENDS  74HCT04

* -----------------------------------------------------------74HCT04A------

* Hex Inverter with LSTTL Compatible Inputs
* Motorola High-Speed CMOS Data, 1993, pages 5-18 to 5-20
* jat 9/3/96    

.SUBCKT 74HCT04A A1 Y1
+ OPTIONAL: DPWR=$G_DPWR DGND=$G_DGND
+ PARAMS: MNTYMXDLY=0 IO_LEVEL=0

U1 INV DPWR DGND
+ A1 Y1
+ DLY_HCT04A IO_HCT MNTYMXDLY={MNTYMXDLY} IO_LEVEL={IO_LEVEL}

.MODEL DLY_HCT04A UGATE (TPLHMX=15NS TPHLMX=17NS)

.ENDS 74HCT04A

* ----------------------------------------------------------- 74LS04 ------
*  Hex Inverters
*
*  The TTL Logic Data Book, 1988, TI Pages 2-25 to 2-29
*  bss    2/3/94
*
.SUBCKT 74LS04  1A  1Y
+     optional: DPWR=$G_DPWR DGND=$G_DGND
+     params: MNTYMXDLY=0 IO_LEVEL=0

U1 inv DPWR DGND
+     1A 1Y
+     DLY_LS04 IO_LS MNTYMXDLY={MNTYMXDLY} IO_LEVEL={IO_LEVEL}

.model DLY_LS04 ugate (tplhTY=9ns tplhMX=15ns tphlTY=10ns tphlMX=15ns)

.ENDS  74LS04
*
*
* ----------------------------------------------------------- 74S04 ------
*  Hex Inverters
*
*  The TTL Logic Data Book, 1988, TI Pages 2-25 to 2-29
*  bss    2/3/94
*
.SUBCKT 74S04  1A  1Y
+     optional: DPWR=$G_DPWR DGND=$G_DGND
+     params: MNTYMXDLY=0 IO_LEVEL=0

U1 inv DPWR DGND
+     1A 1Y
+     DLY_S04 IO_S MNTYMXDLY={MNTYMXDLY} IO_LEVEL={IO_LEVEL}

.model DLY_S04 ugate (tplhTY=3ns tplhMX=4.5ns tphlTY=3ns tphlMX=5ns)

.ENDS  74S04
*
*
* ----------------------------------------------------------- 7405 ------
*  Hex Inverters With Open-Collector Outputs
*
*  The TTL Logic Data Book, 1988, TI Pages 2-31 to 2-35
*  bss    2/3/94
*
.SUBCKT 7405  1A  1Y
+     optional: DPWR=$G_DPWR DGND=$G_DGND
+     params: MNTYMXDLY=0 IO_LEVEL=0

U1 inv DPWR DGND
+     1A 1Y
+     DLY_05 IO_STD_OC MNTYMXDLY={MNTYMXDLY} IO_LEVEL={IO_LEVEL}

.model DLY_05 ugate (tplhTY=40ns tplhMX=55ns tphlTY=8ns tphlMX=15ns)

.ENDS  7405
*
*
* ----------------------------------------------------------- 74AC05 ------
*  Hex Inverters With Open-Drain Outputs
*
*  The FACT Data Book, 1993, Motorola Pages 5-14 to 5-17
*  bss    5/11/94
*
.SUBCKT 74AC05  A1  Y1
+     optional: DPWR=$G_DPWR DGND=$G_DGND
+     params: MNTYMXDLY=0 IO_LEVEL=0

U1 inv DPWR DGND
+     A1 Y1
+     DLY_AC05 IO_AC_OC MNTYMXDLY={MNTYMXDLY} IO_LEVEL={IO_LEVEL}

.model DLY_AC05 ugate (tplhMN=1.5ns tplhMX=6ns tphlMN=1.5ns tphlMX=6ns)

.ENDS  74AC05
*
*
* ----------------------------------------------------------- 74ACT05 ------
*  Hex Inverters With Open-Drain Outputs
*
*  The FACT Data Book, 1993, Motorola Pages 5-14 to 5-17
*  bss    5/11/94
*
.SUBCKT 74ACT05  A1  Y1
+     optional: DPWR=$G_DPWR DGND=$G_DGND
+     params: MNTYMXDLY=0 IO_LEVEL=0

U1 inv DPWR DGND
+     A1 Y1
+     DLY_ACT05 IO_ACT_OC MNTYMXDLY={MNTYMXDLY} IO_LEVEL={IO_LEVEL}

.model DLY_ACT05 ugate (tplhMN=1.5ns tplhMX=8.5ns tphlMN=1.5ns tphlMX=8ns)

.ENDS  74ACT05

* -----------------------------------------------------------74ALS05------

* Hex Inverters
* Motorola Schottky TTL Data Book,1983, pages 5-10 to 5-11
* jat 8/20/96    

.SUBCKT 74ALS05 1A 1Y
+ OPTIONAL: DPWR=$G_DPWR DGND=$G_DGND
+ PARAMS: MNTYMXDLY=0 IO_LEVEL=0

U1 INV DPWR DGND
+ 1A 1Y
+ DLY_ALS05 IO_ALS00_OC MNTYMXDLY={MNTYMXDLY} IO_LEVEL={IO_LEVEL}

.MODEL DLY_ALS05 UGATE (TPLHTY=13NS TPHLTY=8NS)

.ENDS 74ALS05

* ----------------------------------------------------------- 74ALS05A ------
*  Hex Inverters With Open-Collector Outputs
*
*  The ALS/AS Logic Data Book, 1986, TI Pages 2-19 to 2-20
*  bss    2/16/94
*
.SUBCKT 74ALS05A  1A  1Y
+     optional: DPWR=$G_DPWR DGND=$G_DGND
+     params: MNTYMXDLY=0 IO_LEVEL=0

U1 inv DPWR DGND
+     1A 1Y
+     DLY_ALS05 IO_ALS00_OC MNTYMXDLY={MNTYMXDLY} IO_LEVEL={IO_LEVEL}

.model DLY_ALS05 ugate (tplhMN=23ns tplhMX=54ns tphlMN=4ns tphlMX=14ns)

.ENDS  74ALS05A
*
*
* ----------------------------------------------------------- 74H05 ------
*  Hex Inverters With Open-Collector Outputs
*
*  The TTL Data Book, Vol. 2, 1985, TI Pages 3-37 to 3-42
*  bss    2/3/94
*
.SUBCKT 74H05  1A  1Y
+     optional: DPWR=$G_DPWR DGND=$G_DGND
+     params: MNTYMXDLY=0 IO_LEVEL=0

U1 inv DPWR DGND
+     1A 1Y
+     DLY_H05 IO_H_OC MNTYMXDLY={MNTYMXDLY} IO_LEVEL={IO_LEVEL}

.model DLY_H05 ugate (tplhTY=10ns tplhMX=15ns tphlTY=7.5ns tphlMX=12ns)

.ENDS  74H05
*
*
* ----------------------------------------------------------- 74HC05 ------
*  Hex Inverters With Open-Drain Outputs
*
*  The High-Speed CMOS Logic Data Book, 1989, TI Pages 2-33 to 2-35
*  bss    2/3/94
*
.SUBCKT 74HC05  1A  1Y
+     optional: DPWR=$G_DPWR DGND=$G_DGND
+     params: MNTYMXDLY=0 IO_LEVEL=0

U1 inv DPWR DGND
+     1A 1Y
+     DLY_HC05 IO_HC_OC MNTYMXDLY={MNTYMXDLY} IO_LEVEL={IO_LEVEL}

.model DLY_HC05 ugate (tplhTY=13ns tplhMX=23ns tphlTY=9ns tphlMX=17ns)

.ENDS  74HC05
*
*
* ----------------------------------------------------------- 74LS05 ------
*  Hex Inverters With Open-Collector Outputs
*
*  The TTL Logic Data Book, 1988, TI Pages 2-31 to 2-35
*  bss    2/3/94
*
.SUBCKT 74LS05  1A  1Y
+     optional: DPWR=$G_DPWR DGND=$G_DGND
+     params: MNTYMXDLY=0 IO_LEVEL=0

U1 inv DPWR DGND
+     1A 1Y
+     DLY_LS05 IO_LS_OC MNTYMXDLY={MNTYMXDLY} IO_LEVEL={IO_LEVEL}

.model DLY_LS05 ugate (tplhTY=17ns tplhMX=32ns tphlTY=15ns tphlMX=28ns)

.ENDS  74LS05
*
*
* ----------------------------------------------------------- 74S05 ------
*  Hex Inverters With Open-Collector Outputs
*
*  The TTL Logic Data Book, 1988, TI Pages 2-31 to 2-35
*  bss    2/3/94
*
.SUBCKT 74S05  1A  1Y
+     optional: DPWR=$G_DPWR DGND=$G_DGND
+     params: MNTYMXDLY=0 IO_LEVEL=0

U1 inv DPWR DGND
+     1A 1Y
+     DLY_S05 IO_S_OC MNTYMXDLY={MNTYMXDLY} IO_LEVEL={IO_LEVEL}

.model DLY_S05 ugate (tplhMN=2ns tplhTY=5ns tplhMX=7.5ns tphlMN=2ns tphlTY=4.5ns 
+                                 tphlMX=7ns)

.ENDS  74S05
*
*
* ----------------------------------------------------------- 7406 ------
*  Hex Inverter Buffers/Drivers With Open-Collector High-Voltage Outputs
*
*  The TTL Logic Data Book, 1988, TI Pages 2-37 to 2-38
*  bss    2/3/94
*
.SUBCKT 7406  1A  1Y