* -------------------------------------------------------------------------
*    Spectrum Software, all rights reserved, copywrite 1994,
*    Micro-Cap V Digital Library
*
*    Parts in this library are modeled at ambient room temperature (TA=25øC)
*    unless otherwise noted.
*
*    DIGITAL LIBRARY range 74150-74166
*
* ----------------------------------------------------------- 74150 ------
*  Data Selectors/Multiplexers
*
*  The TTL Logic Data Book, 1988, TI Pages 2-457 to 2-464
*  jds    2/15/94
*
.SUBCKT 74150  E0 E1 E2 E3 E4 E5 E6 E7 E8 E9 E10 E11 E12 E13 E14 E15
+              A B C D GBAR W
+  optional: DPWR=$G_DPWR DGND=$G_DGND
+  params: MNTYMXDLY=0 IO_LEVEL=0

U74150 LOGICEXP (21,1) DPWR DGND
+      E0 E1 E2 E3 E4 E5 E6 E7 E8 E9 E10 E11 E12 E13 E14 E15
+      A B C D GBAR W_O
+      D0_GATE IO_STD MNTYMXDLY={MNTYMXDLY} IO_LEVEL={IO_LEVEL}
+
+    LOGIC:
+      g = {(~GBAR)}
+      abar = {(~A)}
+      bbar = {(~B)}
+      cbar = {(~C)}
+      dbar = {(~D)}
+      a0 = {(E0 & abar & bbar & cbar & dbar & g)}
+      a1 = {(E1 & A & bbar & cbar & dbar & g)}
+      a2 = {(E2 & abar & B & cbar & dbar & g)}
+      a3 = {(E3 & A & B & cbar & dbar & g)}
+      a4 = {(E4 & abar & bbar & C & dbar & g)}
+      a5 = {(E5 & A & bbar & C & dbar & g)}
+      a6 = {(E6 & abar & B & C & dbar & g)}
+      a7 = {(E7 & A & B & C & dbar & g)}
+      a8 = {(E8 & abar & bbar & cbar & D & g)}
+      a9 = {(E9 & A & bbar & cbar & D & g)}
+      a10 = {(E10 & abar & B & cbar & D & g)}
+      a11 = {(E11 & A & B & cbar & D & g)}
+      a12 = {(E12 & abar & bbar & C & D & g)}
+      a13 = {(E13 & A & bbar & C & D & g)}
+      a14 = {(E14 & abar & B & C & D & g)}
+      a15 = {(E15 & A & B & C & D & g)}
+
+      Wa = { (a0 | a1 | a2 | a3 | a4 | a5 | a6 | a7) }
+      Wb = { (a8 | a9 | a10 | a11 | a12 | a13 | a14 | a15) }
+      W_O  = { ~(Wa | Wb) }

Udly PINDLY (1,0,21) DPWR DGND
+    W_O
+    E0 E1 E2 E3 E4 E5 E6 E7 E8 E9 E10 E11 E12 E13 E14 E15
+    A B C D GBAR
+    W
+    IO_STD MNTYMXDLY={MNTYMXDLY} IO_LEVEL={IO_LEVEL}
+
+    BOOLEAN:
+       SELECT= { CHANGED(A,0) | CHANGED(B,0) | CHANGED(C,0) | CHANGED(D,0) }
+       STROBE= { CHANGED(GBAR,0) }
+       DATA={ CHANGED(E0,0) | CHANGED(E1,0) | CHANGED(E2,0) | CHANGED(E3,0)
+            | CHANGED(E4,0) | CHANGED(E5,0) | CHANGED(E6,0) | CHANGED(E7,0)
+            | CHANGED(E8,0) | CHANGED(E9,0) | CHANGED(E10,0) | CHANGED(E11,0)
+            | CHANGED(E12,0) | CHANGED(E13,0) | CHANGED(E14,0) | CHANGED(E15,0) }
+
+    PINDLY:
+       W = {
+            CASE(
+                 SELECT & TRN_LH, DELAY(-1,23ns,35ns),
+                 SELECT & TRN_HL, DELAY(-1,22ns,33ns),
+                 STROBE & TRN_LH, DELAY(-1,15.5ns,24ns),
+                 STROBE & TRN_HL, DELAY(-1,21ns,30ns),
+                 DATA & TRN_LH, DELAY(-1,8.5ns,14ns),
+                 DATA & TRN_HL, DELAY(-1,13ns,20ns),
+                 DELAY(-1,24ns,36ns)
+                )
+            }

.ENDS 74150
*
*
* ----------------------------------------------------------- 74151A ------
*  Data Selectors/Multiplexers
*
*  The TTL Logic Data Book, 1988, TI Pages 2-457 to 2-464
*  jds    2/16/94
*
.SUBCKT 74151A  D0 D1 D2 D3 D4 D5 D6 D7 A B C GBAR Y W
+  optional: DPWR=$G_DPWR DGND=$G_DGND
+  params: MNTYMXDLY=0 IO_LEVEL=0

U74151A LOGICEXP (12,2) DPWR DGND
+      D0 D1 D2 D3 D4 D5 D6 D7 A B C GBAR Y_O W_O
+      D0_GATE IO_STD MNTYMXDLY={MNTYMXDLY} IO_LEVEL={IO_LEVEL}
+
+    LOGIC:
+      g = {(~GBAR)}
+      abar = {(~A)}
+      bbar = {(~B)}
+      cbar = {(~C)}
+      a0 = {(D0 & abar & bbar & cbar & g)}
+      a1 = {(D1 & A & bbar & cbar & g)}
+      a2 = {(D2 & abar & B & cbar & g)}
+      a3 = {(D3 & A & B & cbar & g)}
+      a4 = {(D4 & abar & bbar & C & g)}
+      a5 = {(D5 & A & bbar & C & g)}
+      a6 = {(D6 & abar & B & C & g)}
+      a7 = {(D7 & A & B & C & g)}
+
+      W_O = { ~( a0 | a1 | a2 | a3 | a4 | a5 | a6 | a7 ) }
+      Y_O = { (~W_O) }

Udly PINDLY (2,0,12) DPWR DGND
+    W_O Y_O
+    D0 D1 D2 D3 D4 D5 D6 D7
+    A B C GBAR
+    W Y
+    IO_STD MNTYMXDLY={MNTYMXDLY} IO_LEVEL={IO_LEVEL}
+
+    BOOLEAN:
+       SELECT= { CHANGED(A,0) | CHANGED(B,0) | CHANGED(C,0) }
+       STROBE= { CHANGED(GBAR,0) }
+       DATA={ CHANGED(D0,0) | CHANGED(D1,0) | CHANGED(D2,0) | CHANGED(D3,0) |
+              CHANGED(D4,0) | CHANGED(D5,0) | CHANGED(D6,0) | CHANGED(D7,0) }
+
+    PINDLY:
+       W = {
+            CASE(
+                 SELECT & TRN_LH, DELAY(-1,17ns,26ns),
+                 SELECT & TRN_HL, DELAY(-1,19ns,30ns),
+                 STROBE & TRN_LH, DELAY(-1,14ns,21ns),
+                 STROBE & TRN_HL, DELAY(-1,15ns,23ns),
+                 DATA & TRN_LH, DELAY(-1,8ns,14ns),
+                 DATA & TRN_HL, DELAY(-1,8ns,14ns),
+                 DELAY(-1,20ns,31ns)
+                )
+            }
+       Y = {
+            CASE(
+                 SELECT & TRN_LH, DELAY(-1,25ns,38ns),
+                 SELECT & TRN_HL, DELAY(-1,25ns,38ns),
+                 STROBE & TRN_LH, DELAY(-1,21ns,33ns),
+                 STROBE & TRN_HL, DELAY(-1,22ns,33ns),
+                 DATA & TRN_LH, DELAY(-1,13ns,20ns),
+                 DATA & TRN_HL, DELAY(-1,18ns,27ns),
+                 DELAY(-1,26ns,39ns)
+                )
+            }

.ENDS 74151A
*
*
* ----------------------------------------------------------- 74AC151 ------
*  8-Input Multiplexers
*
*  NS FACT Advanced CMOS Logic Data Book, 1989
*  jds    2/16/94   Pages 4-62 to 4-67
*
.SUBCKT 74AC151  I0 I1 I2 I3 I4 I5 I6 I7 S0 S1 S2 EBAR Z ZBAR
+  optional: DPWR=$G_DPWR DGND=$G_DGND
+  params: MNTYMXDLY=0 IO_LEVEL=0

U74AC151 LOGICEXP (12,2) DPWR DGND
+        I0 I1 I2 I3 I4 I5 I6 I7 S0 S1 S2 EBAR Z_O ZBAR_O
+        D0_GATE IO_AC MNTYMXDLY={MNTYMXDLY} IO_LEVEL={IO_LEVEL}
+
+    LOGIC:
+      e = {(~EBAR)}
+      s0bar = {(~S0)}
+      s1bar = {(~S1)}
+      s2bar = {(~S2)}
+      a0 = {(I0 & s0bar & s1bar & s2bar & e)}
+      a1 = {(I1 & S0 & s1bar & s2bar & e)}
+      a2 = {(I2 & s0bar & S1 & s2bar & e)}
+      a3 = {(I3 & S0 & S1 & s2bar & e)}
+      a4 = {(I4 & s0bar & s1bar & S2 & e)}
+      a5 = {(I5 & S0 & s1bar & S2 & e)}
+      a6 = {(I6 & s0bar & S1 & S2 & e)}
+      a7 = {(I7 & S0 & S1 & S2 & e)}
+
+      ZBAR_O = { ~( a0 | a1 | a2 | a3 | a4 | a5 | a6 | a7 ) }
+      Z_O = { (~ZBAR_O) }

Udly PINDLY (2,0,12) DPWR DGND
+    Z_O ZBAR_O
+    I0 I1 I2 I3 I4 I5 I6 I7
+    S0 S1 S2 EBAR
+    Z ZBAR
+    IO_AC MNTYMXDLY={MNTYMXDLY} IO_LEVEL={IO_LEVEL}
+
+    BOOLEAN:
+       SELECT= { CHANGED(S0,0) | CHANGED(S1,0) | CHANGED(S2,0) }
+       STROBE= { CHANGED(EBAR,0) }
+       DATA={ CHANGED(I0,0) | CHANGED(I1,0) | CHANGED(I2,0) | CHANGED(I3,0) |
+              CHANGED(I4,0) | CHANGED(I5,0) | CHANGED(I6,0) | CHANGED(I7,0) }
+
+    PINDLY:
+       Z ZBAR = {
+            CASE(
+                 SELECT & TRN_LH, DELAY(2.5ns,8.5ns,13ns),
+                 SELECT & TRN_HL, DELAY(2ns,8.5ns,13ns),
+                 STROBE & TRN_LH, DELAY(2ns,6ns,10ns),
+                 STROBE & TRN_HL, DELAY(1.5ns,6.5ns,10ns),
+                 DATA & TRN_LH, DELAY(1.5ns,7ns,10.5ns),
+                 DATA & TRN_HL, DELAY(1.5ns,7ns,11ns),
+                 DELAY(3.5ns,9.5ns,14ns)
+                )
+            }

.ENDS 74AC151
*
*
* ----------------------------------------------------------- 74ACT151 ------
*  8-Input Multiplexers
*
*  NS FACT Advanced CMOS Logic Data Book, 1989
*  jds    2/16/94   Pages 4-62 to 4-67
*
.SUBCKT 74ACT151  I0 I1 I2 I3 I4 I5 I6 I7 S0 S1 S2 EBAR Z ZBAR
+  optional: DPWR=$G_DPWR DGND=$G_DGND
+  params: MNTYMXDLY=0 IO_LEVEL=0

U74ACT151 LOGICEXP (12,2) DPWR DGND
+        I0 I1 I2 I3 I4 I5 I6 I7 S0 S1 S2 EBAR Z_O ZBAR_O
+        D0_GATE IO_ACT MNTYMXDLY={MNTYMXDLY} IO_LEVEL={IO_LEVEL}
+
+    LOGIC:
+      e = {(~EBAR)}
+      s0bar = {(~S0)}
+      s1bar = {(~S1)}
+      s2bar = {(~S2)}
+      a0 = {(I0 & s0bar & s1bar & s2bar & e)}
+      a1 = {(I1 & S0 & s1bar & s2bar & e)}
+      a2 = {(I2 & s0bar & S1 & s2bar & e)}
+      a3 = {(I3 & S0 & S1 & s2bar & e)}
+      a4 = {(I4 & s0bar & s1bar & S2 & e)}
+      a5 = {(I5 & S0 & s1bar & S2 & e)}
+      a6 = {(I6 & s0bar & S1 & S2 & e)}
+      a7 = {(I7 & S0 & S1 & S2 & e)}
+
+      ZBAR_O = { ~( a0 | a1 | a2 | a3 | a4 | a5 | a6 | a7 ) }
+      Z_O = { (~ZBAR_O) }

Udly PINDLY (2,0,12) DPWR DGND
+    Z_O ZBAR_O
+    I0 I1 I2 I3 I4 I5 I6 I7
+    S0 S1 S2 EBAR
+    Z ZBAR
+    IO_ACT MNTYMXDLY={MNTYMXDLY} IO_LEVEL={IO_LEVEL}
+
+    BOOLEAN:
+       SELECT= { CHANGED(S0,0) | CHANGED(S1,0) | CHANGED(S2,0) }
+       STROBE= { CHANGED(EBAR,0) }
+       DATA={ CHANGED(I0,0) | CHANGED(I1,0) | CHANGED(I2,0) | CHANGED(I3,0) |
+              CHANGED(I4,0) | CHANGED(I5,0) | CHANGED(I6,0) | CHANGED(I7,0) }
+
+    PINDLY:
+       Z = {
+            CASE(
+                 SELECT & TRN_LH, DELAY(3.5ns,12.5ns,15.5ns),
+                 SELECT & TRN_HL, DELAY(3.5ns,12.5ns,15.5ns),
+                 STROBE & TRN_LH, DELAY(2.5ns,9.5ns,10ns),
+                 STROBE & TRN_HL, DELAY(2.5ns,9ns,10.5ns),
+                 DATA & TRN_LH, DELAY(3.5ns,11ns,11.5ns),
+                 DATA & TRN_HL, DELAY(3.5ns,11ns,12ns),
+                 DELAY(4.5ns,13.5ns,16.5ns)
+                )
+            }
+       ZBAR = {
+            CASE(
+                 SELECT & TRN_LH, DELAY(3.5ns,12.5ns,15ns),
+                 SELECT & TRN_HL, DELAY(4ns,12.5ns,16.5ns),
+                 STROBE & TRN_LH, DELAY(2.5ns,8.5ns,10ns),
+                 STROBE & TRN_HL, DELAY(3ns,10ns,10.5ns),
+                 DATA & TRN_LH, DELAY(3.5ns,11ns,12ns),
+                 DATA & TRN_HL, DELAY(4ns,11ns,12.5ns),
+                 DELAY(5ns,13.5ns,17.5ns)
+                )
+              }

.ENDS 74ACT151
*
*
* ----------------------------------------------------------- 74ALS151 ------
*  Data Selectors/Multiplexers
*
*  The ALS/AS Logic Data Book, 1986, TI Pages 2-129 to 2-132
*  jds    2/16/94
*
.SUBCKT 74ALS151  D0 D1 D2 D3 D4 D5 D6 D7 A B C GBAR Y W
+  optional: DPWR=$G_DPWR DGND=$G_DGND
+  params: MNTYMXDLY=0 IO_LEVEL=0

U74ALS151 LOGICEXP (12,2) DPWR DGND
+        D0 D1 D2 D3 D4 D5 D6 D7 A B C GBAR Y_O W_O
+        D0_GATE IO_ALS00 MNTYMXDLY={MNTYMXDLY} IO_LEVEL={IO_LEVEL}
+
+    LOGIC:
+      g = {(~GBAR)}
+      abar = {(~A)}
+      bbar = {(~B)}
+      cbar = {(~C)}
+      a0 = {(D0 & abar & bbar & cbar & g)}
+      a1 = {(D1 & A & bbar & cbar & g)}
+      a2 = {(D2 & abar & B & cbar & g)}
+      a3 = {(D3 & A & B & cbar & g)}
+      a4 = {(D4 & abar & bbar & C & g)}
+      a5 = {(D5 & A & bbar & C & g)}
+      a6 = {(D6 & abar & B & C & g)}
+      a7 = {(D7 & A & B & C & g)}
+
+      W_O = { ~( a0 | a1 | a2 | a3 | a4 | a5 | a6 | a7 ) }
+      Y_O = { (~W_O) }

Udly PINDLY (2,0,12) DPWR DGND
+    W_O Y_O
+    D0 D1 D2 D3 D4 D5 D6 D7
+    A B C GBAR
+    W Y
+    IO_ALS00 MNTYMXDLY={MNTYMXDLY} IO_LEVEL={IO_LEVEL}
+
+    BOOLEAN:
+       SELECT= { CHANGED(A,0) | CHANGED(B,0) | CHANGED(C,0) }
+       STROBE= { CHANGED(GBAR,0) }
+       DATA={ CHANGED(D0,0) | CHANGED(D1,0) | CHANGED(D2,0) | CHANGED(D3,0) |
+              CHANGED(D4,0) | CHANGED(D5,0) | CHANGED(D6,0) | CHANGED(D7,0) }
+
+    PINDLY:
+       W = {
+            CASE(
+                 SELECT & TRN_LH, DELAY(7ns,-1,24ns),
+                 SELECT & TRN_HL, DELAY(7ns,-1,23ns),
+                 STROBE & TRN_LH, DELAY(5ns,-1,19ns),
+                 STROBE & TRN_HL, DELAY(5ns,-1,23ns),
+                 DATA & TRN_LH, DELAY(3ns,-1,15ns),
+                 DATA & TRN_HL, DELAY(4ns,-1,15ns),
+                 DELAY(8ns,-1,25ns)
+                )
+            }
+       Y = {
+            CASE(
+                 SELECT & TRN_LH, DELAY(4ns,-1,18ns),
+                 SELECT & TRN_HL, DELAY(8ns,-1,24ns),
+                 STROBE & TRN_LH, DELAY(4ns,-1,18ns),
+                 STROBE & TRN_HL, DELAY(4ns,-1,19ns),
+                 DATA & TRN_LH, DELAY(3ns,-1,10ns),
+                 DATA & TRN_HL, DELAY(5ns,-1,15ns),
+                 DELAY(9ns,-1,25ns)
+                )
+            }

.ENDS 74ALS151
*
*
* ----------------------------------------------------------- 74AS151 ------
*  Data Selectors/Multiplexers
*
*  The ALS/AS Logic Data Book, 1986, TI Pages 2-129 to 2-132
*  jds    2/16/94
*
.SUBCKT 74AS151  D0 D1 D2 D3 D4 D5 D6 D7 A B C GBAR Y W
+  optional: DPWR=$G_DPWR DGND=$G_DGND
+  params: MNTYMXDLY=0 IO_LEVEL=0

U74AS151 LOGICEXP (12,2) DPWR DGND
+        D0 D1 D2 D3 D4 D5 D6 D7 A B C GBAR Y_O W_O
+        D0_GATE IO_AS00 MNTYMXDLY={MNTYMXDLY} IO_LEVEL={IO_LEVEL}
+
+    LOGIC:
+      g = {(~GBAR)}
+      abar = {(~A)}
+      bbar = {(~B)}
+      cbar = {(~C)}
+      a0 = {(D0 & abar & bbar & cbar & g)}
+      a1 = {(D1 & A & bbar & cbar & g)}
+      a2 = {(D2 & abar & B & cbar & g)}
+      a3 = {(D3 & A & B & cbar & g)}
+      a4 = {(D4 & abar & bbar & C & g)}
+      a5 = {(D5 & A & bbar & C & g)}
+      a6 = {(D6 & abar & B & C & g)}
+      a7 = {(D7 & A & B & C & g)}
+
+      W_O = { ~( a0 | a1 | a2 | a3 | a4 | a5 | a6 | a7 ) }
+      Y_O = { (~W_O) }

Udly PINDLY (2,0,12) DPWR DGND
+    W_O Y_O
+    D0 D1 D2 D3 D4 D5 D6 D7
+    A B C GBAR
+    W Y
+    IO_AS00 MNTYMXDLY={MNTYMXDLY} IO_LEVEL={IO_LEVEL}
+
+    BOOLEAN:
+       SELECT= { CHANGED(A,0) | CHANGED(B,0) | CHANGED(C,0) }
+       STROBE= { CHANGED(GBAR,0) }
+       DATA={ CHANGED(D0,0) | CHANGED(D1,0) | CHANGED(D2,0) | CHANGED(D3,0) |
+              CHANGED(D4,0) | CHANGED(D5,0) | CHANGED(D6,0) | CHANGED(D7,0) }
+
+    PINDLY:
+       W = {
+            CASE(
+                 SELECT & TRN_LH, DELAY(4ns,-1,12ns),
+                 SELECT & TRN_HL, DELAY(4ns,-1,12ns),
+                 STROBE & TRN_LH, DELAY(1.5ns,-1,6ns),
+                 STROBE & TRN_HL, DELAY(3ns,-1,10ns),
+                 DATA & TRN_LH, DELAY(2ns,-1,6.5ns),
+                 DATA & TRN_HL, DELAY(1ns,-1,4.5ns),
+                 DELAY(5ns,-1,13ns)
+                )
+            }
+       Y = {
+            CASE(
+                 SELECT & TRN_LH, DELAY(4.5ns,-1,14.5ns),
+                 SELECT & TRN_HL, DELAY(4.5ns,-1,15ns),
+                 STROBE & TRN_LH, DELAY(4.5ns,-1,14ns),
+                 STROBE & TRN_HL, DELAY(3ns,-1,11ns),
+                 DATA & TRN_LH, DELAY(3ns,-1,10.5ns),
+                 DATA & TRN_HL, DELAY(3ns,-1,11ns),
+                 DELAY(5.5ns,-1,16ns)
+                )
+            }

.ENDS 74AS151
*
*
* ----------------------------------------------------------- 74F151 ------
*  8-Input Multiplexers
*
*  Philips FAST TTL Logic Series Data Book, 1992
*  jds    2/17/94   Pages 180 - 184
*
.SUBCKT 74F151  I0 I1 I2 I3 I4 I5 I6 I7 S0 S1 S2 EBAR Y YBAR
+  optional: DPWR=$G_DPWR DGND=$G_DGND
+  params: MNTYMXDLY=0 IO_LEVEL=0

U74F151 LOGICEXP (12,2) DPWR DGND
+        I0 I1 I2 I3 I4 I5 I6 I7 S0 S1 S2 EBAR Y_O YBAR_O
+        D0_GATE IO_F MNTYMXDLY={MNTYMXDLY} IO_LEVEL={IO_LEVEL}
+
+    LOGIC:
+      e = {(~EBAR)}
+      s0bar = {(~S0)}
+      s1bar = {(~S1)}
+      s2bar = {(~S2)}
+      a0 = {(I0 & s0bar & s1bar & s2bar & e)}
+      a1 = {(I1 & S0 & s1bar & s2bar & e)}
+      a2 = {(I2 & s0bar & S1 & s2bar & e)}
+      a3 = {(I3 & S0 & S1 & s2bar & e)}
+      a4 = {(I4 & s0bar & s1bar & S2 & e)}
+      a5 = {(I5 & S0 & s1bar & S2 & e)}
+      a6 = {(I6 & s0bar & S1 & S2 & e)}
+      a7 = {(I7 & S0 & S1 & S2 & e)}
+
+      YBAR_O = { ~( a0 | a1 | a2 | a3 | a4 | a5 | a6 | a7 ) }
+      Y_O = { (~YBAR_O) }

Udly PINDLY (2,0,12) DPWR DGND
+    Y_O YBAR_O
+    I0 I1 I2 I3 I4 I5 I6 I7
+    S0 S1 S2 EBAR
+    Y YBAR
+    IO_ACT MNTYMXDLY={MNTYMXDLY} IO_LEVEL={IO_LEVEL}
+
+    BOOLEAN:
+       SELECT= { CHANGED(S0,0) | CHANGED(S1,0) | CHANGED(S2,0) }
+       STROBE= { CHANGED(EBAR,0) }
+       DATA={ CHANGED(I0,0) | CHANGED(I1,0) | CHANGED(I2,0) | CHANGED(I3,0) |
+              CHANGED(I4,0) | CHANGED(I5,0) | CHANGED(I6,0) | CHANGED(I7,0) }
+
+    PINDLY:
+       Y = {
+            CASE(
+                 SELECT & TRN_LH, DELAY(4ns,7ns,9.5ns),
+                 SELECT & TRN_HL, DELAY(4.5ns,7ns,9ns),
+                 STROBE & TRN_LH, DELAY(6ns,8ns,10ns),
+                 STROBE & TRN_HL, DELAY(4ns,5.5ns,7ns),
+                 DATA & TRN_LH, DELAY(3.0ns,4.5ns,6.5ns),
+                 DATA & TRN_HL, DELAY(3.0ns,4.5ns,6.5ns),
+                 DELAY(7ns,9ns,10.5ns)
+                )
+            }
+       YBAR = {
+            CASE(
+                 SELECT & TRN_LH, DELAY(4ns,6.5ns,9ns),
+                 SELECT & TRN_HL, DELAY(2ns,4.5ns,7ns),
+                 STROBE & TRN_LH, DELAY(3.5ns,5ns,6.5ns),
+                 STROBE & TRN_HL, DELAY(4ns,5.5ns,7.5ns),
+                 DATA & TRN_LH, DELAY(2ns,4ns,6ns),
+                 DATA & TRN_HL, DELAY(1ns,2.5ns,4ns),
+                 DELAY(5ns,7.5ns,10ns)
+                )
+              }

.ENDS 74F151
*
*
* ----------------------------------------------------------- 74F151A ------
*  8-Input Multiplexers
*
*  Philips FAST TTL Logic Series Data Book, 1992
*  jds    2/17/94   Pages 180 - 184
*
.SUBCKT 74F151A  I0 I1 I2 I3 I4 I5 I6 I7 S0 S1 S2 EBAR Y YBAR
+  optional: DPWR=$G_DPWR DGND=$G_DGND
+  params: MNTYMXDLY=0 IO_LEVEL=0

U74F151A LOGICEXP (12,2) DPWR DGND
+        I0 I1 I2 I3 I4 I5 I6 I7 S0 S1 S2 EBAR Y_O YBAR_O
+        D0_GATE IO_F MNTYMXDLY={MNTYMXDLY} IO_LEVEL={IO_LEVEL}
+
+    LOGIC:
+      e = {(~EBAR)}
+      s0bar = {(~S0)}
+      s1bar = {(~S1)}
+      s2bar = {(~S2)}
+      a0 = {(I0 & s0bar & s1bar & s2bar & e)}
+      a1 = {(I1 & S0 & s1bar & s2bar & e)}
+      a2 = {(I2 & s0bar & S1 & s2bar & e)}
+      a3 = {(I3 & S0 & S1 & s2bar & e)}
+      a4 = {(I4 & s0bar & s1bar & S2 & e)}
+      a5 = {(I5 & S0 & s1bar & S2 & e)}
+      a6 = {(I6 & s0bar & S1 & S2 & e)}
+      a7 = {(I7 & S0 & S1 & S2 & e)}
+
+      YBAR_O = { ~( a0 | a1 | a2 | a3 | a4 | a5 | a6 | a7 ) }
+      Y_O = { (~YBAR_O) }

Udly PINDLY (2,0,12) DPWR DGND
+    Y_O YBAR_O
+    I0 I1 I2 I3 I4 I5 I6 I7
+    S0 S1 S2 EBAR
+    Y YBAR
+    IO_ACT MNTYMXDLY={MNTYMXDLY} IO_LEVEL={IO_LEVEL}
+
+    BOOLEAN:
+       SELECT= { CHANGED(S0,0) | CHANGED(S1,0) | CHANGED(S2,0) }
+       STROBE= { CHANGED(EBAR,0) }
+       DATA={ CHANGED(I0,0) | CHANGED(I1,0) | CHANGED(I2,0) | CHANGED(I3,0) |
+              CHANGED(I4,0) | CHANGED(I5,0) | CHANGED(I6,0) | CHANGED(I7,0) }
+
+    PINDLY:
+       Y = {
+            CASE(
+                 SELECT & TRN_LH, DELAY(4.5ns,6.5ns,10ns),
+                 SELECT & TRN_HL, DELAY(4ns,6ns,8ns),
+                 STROBE & TRN_LH, DELAY(4ns,6.5ns,9ns),
+                 STROBE & TRN_HL, DELAY(3ns,5ns,7ns),
+                 DATA & TRN_LH, DELAY(2.5ns,4.5ns,7ns),
+                 DATA & TRN_HL, DELAY(2.5ns,4.5ns,7ns),
+                 DELAY(5.5ns,7.5ns,11ns)
+                )
+            }
+       YBAR = {
+            CASE(
+                 SELECT & TRN_LH, DELAY(3.5ns,5.5ns,8ns),
+                 SELECT & TRN_HL, DELAY(2.5ns,4.5ns,7ns),
+                 STROBE & TRN_LH, DELAY(2.5ns,4.5ns,6.5ns),
+                 STROBE & TRN_HL, DELAY(2ns,3.5ns,5.5ns),
+                 DATA & TRN_LH, DELAY(2ns,4ns,7ns),
+                 DATA & TRN_HL, DELAY(1ns,2ns,4.5ns),
+                 DELAY(4.5ns,6.5ns,9ns)
+                )
+              }

.ENDS 74F151A
*
*
* ----------------------------------------------------------- 74F151B ------
*  1-OF-8 Data Selectors/Multiplexers
*
*  The F Logic Data Book, 1994, TI Pages 2-81 to 2-84
*  bss    12/11/95
*
.SUBCKT 74F151B  D0 D1 D2 D3 D4 D5 D6 D7 A B C GBAR Y W
+  optional: DPWR=$G_DPWR DGND=$G_DGND
+  params: MNTYMXDLY=0 IO_LEVEL=0

U74F151B LOGICEXP (12,2) DPWR DGND
+        D0 D1 D2 D3 D4 D5 D6 D7 A B C GBAR Y_O W_O
+        D0_GATE IO_F MNTYMXDLY={MNTYMXDLY} IO_LEVEL={IO_LEVEL}
+
+    LOGIC:
+      g = {(~GBAR)}
+      abar = {(~A)}
+      bbar = {(~B)}
+      cbar = {(~C)}
+      a0 = {(D0 & abar & bbar & cbar & g)}
+      a1 = {(D1 & A & bbar & cbar & g)}
+      a2 = {(D2 & abar & B & cbar & g)}
+      a3 = {(D3 & A & B & cbar & g)}
+      a4 = {(D4 & abar & bbar & C & g)}
+      a5 = {(D5 & A & bbar & C & g)}
+      a6 = {(D6 & abar & B & C & g)}
+      a7 = {(D7 & A & B & C & g)}
+
+      Y_O = { ( a0 | a1 | a2 | a3 | a4 | a5 | a6 | a7 ) }
+      W_O = { (~Y_O) }

Udly PINDLY (2,0,12) DPWR DGND
+    W_O Y_O
+    D0 D1 D2 D3 D4 D5 D6 D7
+    A B C GBAR
+    W Y
+    IO_F MNTYMXDLY={MNTYMXDLY} IO_LEVEL={IO_LEVEL}
+
+    BOOLEAN:
+       SELECT= { CHANGED(A,0) | CHANGED(B,0) | CHANGED(C,0) }
+       STROBE= { CHANGED(GBAR,0) }
+       DATA={ CHANGED(D0,0) | CHANGED(D1,0) | CHANGED(D2,0) | CHANGED(D3,0) |
+              CHANGED(D4,0) | CHANGED(D5,0) | CHANGED(D6,0) | CHANGED(D7,0) }
+
+    PINDLY:
+       W = {
+            CASE(
+                 SELECT & TRN_LH, DELAY(3.8ns,5.2ns,9ns),
+                 SELECT & TRN_HL, DELAY(2.9ns,4.3ns,7.5ns),
+                 STROBE & TRN_LH, DELAY(3ns,4.1ns,6.1ns),
+                 STROBE & TRN_HL, DELAY(2.8ns,3.5ns,6ns),
+                 DATA & TRN_LH, DELAY(2.7ns,3.6ns,6.5ns),
+                 DATA & TRN_HL, DELAY(1.2ns,1.9ns,4ns),
+                 DELAY(4.8ns,6.2ns,10ns))}
+
+       Y = {
+            CASE(
+                 SELECT & TRN_LH, DELAY(4.5ns,6ns,10.5ns),
+                 SELECT & TRN_HL, DELAY(4ns,5.6ns,9ns),
+                 STROBE & TRN_LH, DELAY(4.4ns,5.3ns,9.5ns),
+                 STROBE & TRN_HL, DELAY(3.5ns,4.5ns,7ns),
+                 DATA & TRN_LH, DELAY(2.9ns,3.7ns,6.5ns),
+                 DATA & TRN_HL, DELAY(3.3ns,4.2ns,7ns),
+                 DELAY(5.5ns,7ns,11.5ns))}

.ENDS 74F151B
*
*
* ----------------------------------------------------------- 74HC151 ------
*  Data Selectors/Multiplexers
*
*  The High Speed CMOS Logic Data Book, 1989, TI Pages 2-197 to 2-200
*  jds    2/16/94
*
.SUBCKT 74HC151  D0 D1 D2 D3 D4 D5 D6 D7 A B C GBAR Y W
+  optional: DPWR=$G_DPWR DGND=$G_DGND
+  params: MNTYMXDLY=0 IO_LEVEL=0

U74HC151 LOGICEXP (12,2) DPWR DGND
+        D0 D1 D2 D3 D4 D5 D6 D7 A B C GBAR Y_O W_O
+        D0_GATE IO_HC MNTYMXDLY={MNTYMXDLY} IO_LEVEL={IO_LEVEL}
+
+    LOGIC:
+      g = {(~GBAR)}
+      abar = {(~A)}
+      bbar = {(~B)}
+      cbar = {(~C)}
+      a0 = {(D0 & abar & bbar & cbar & g)}
+      a1 = {(D1 & A & bbar & cbar & g)}
+      a2 = {(D2 & abar & B & cbar & g)}
+      a3 = {(D3 & A & B & cbar & g)}
+      a4 = {(D4 & abar & bbar & C & g)}
+      a5 = {(D5 & A & bbar & C & g)}
+      a6 = {(D6 & abar & B & C & g)}
+      a7 = {(D7 & A & B & C & g)}
+
+      W_O = { ~( a0 | a1 | a2 | a3 | a4 | a5 | a6 | a7 ) }
+      Y_O = { (~W_O) }

Udly PINDLY (2,0,12) DPWR DGND
+    W_O Y_O
+    D0 D1 D2 D3 D4 D5 D6 D7
+    A B C GBAR
+    W Y
+    IO_HC MNTYMXDLY={MNTYMXDLY} IO_LEVEL={IO_LEVEL}
+
+    BOOLEAN:
+       SELECT= { CHANGED(A,0) | CHANGED(B,0) | CHANGED(C,0) }
+       STROBE= { CHANGED(GBAR,0) }
+       DATA={ CHANGED(D0,0) | CHANGED(D1,0) | CHANGED(D2,0) | CHANGED(D3,0) |
+              CHANGED(D4,0) | CHANGED(D5,0) | CHANGED(D6,0) | CHANGED(D7,0) }
+
+    PINDLY:
+     W Y = {
+            CASE(
+                 SELECT, DELAY(-1,30ns,50ns),
+                 STROBE, DELAY(-1,15ns,25ns),
+                 DATA, DELAY(-1,23ns,39ns),
+                 DELAY(-1,31ns,51ns)
+                )
+            }

.ENDS 74HC151
*
*
* ----------------------------------------------------------- 74HCT151 ------
*  8-Input Multiplexers
*
*  Philips High Speed CMOS Logic Family Data Book, 1994
*  jds    2/25/94   Pages 291 - 295
*
.SUBCKT 74HCT151  I0 I1 I2 I3 I4 I5 I6 I7 S0 S1 S2 EBAR Y YBAR
+  optional: DPWR=$G_DPWR DGND=$G_DGND
+  params: MNTYMXDLY=0 IO_LEVEL=0

U74HCT151 LOGICEXP (12,2) DPWR DGND
+        I0 I1 I2 I3 I4 I5 I6 I7 S0 S1 S2 EBAR Y_O YBAR_O
+        D0_GATE IO_HCT MNTYMXDLY={MNTYMXDLY} IO_LEVEL={IO_LEVEL}
+
+    LOGIC:
+      e = {(~EBAR)}
+      s0bar = {(~S0)}
+      s1bar = {(~S1)}
+      s2bar = {(~S2)}
+      a0 = {(I0 & s0bar & s1bar & s2bar & e)}
+      a1 = {(I1 & S0 & s1bar & s2bar & e)}
+      a2 = {(I2 & s0bar & S1 & s2bar & e)}
+      a3 = {(I3 & S0 & S1 & s2bar & e)}
+      a4 = {(I4 & s0bar & s1bar & S2 & e)}
+      a5 = {(I5 & S0 & s1bar & S2 & e)}
+      a6 = {(I6 & s0bar & S1 & S2 & e)}
+      a7 = {(I7 & S0 & S1 & S2 & e)}
+
+      YBAR_O = { ~( a0 | a1 | a2 | a3 | a4 | a5 | a6 | a7 ) }
+      Y_O = { (~YBAR_O) }

Udly PINDLY (2,0,12) DPWR DGND
+    Y_O YBAR_O
+    I0 I1 I2 I3 I4 I5 I6 I7
+    S0 S1 S2 EBAR
+    Y YBAR
+    IO_HCT MNTYMXDLY={MNTYMXDLY} IO_LEVEL={IO_LEVEL}
+
+    BOOLEAN:
+       SELECT= { CHANGED(S0,0) | CHANGED(S1,0) | CHANGED(S2,0) }
+       STROBE= { CHANGED(EBAR,0) }
+       DATA={ CHANGED(I0,0) | CHANGED(I1,0) | CHANGED(I2,0) | CHANGED(I3,0) |
+              CHANGED(I4,0) | CHANGED(I5,0) | CHANGED(I6,0) | CHANGED(I7,0) }
+
+    PINDLY:
+       Y = {
+            CASE(
+                 SELECT, DELAY(-1,23ns,41ns),
+                 STROBE, DELAY(-1,16ns,29ns),
+                 DATA, DELAY(-1,22ns,38ns),
+                 DELAY(-1,24ns,42ns)
+                )
+            }
+       YBAR = {
+            CASE(
+                 SELECT, DELAY(-1,25ns,43ns),
+                 STROBE, DELAY(-1,21ns,36ns),
+                 DATA, DELAY(-1,22ns,38ns),
+                 DELAY(-1,26ns,44ns)
+                )
+              }

.ENDS 74HCT151
*
*
* ----------------------------------------------------------- 74LS151 ------
*  Data Selectors/Multiplexers
*
*  The TTL Logic Data Book, 1988, TI Pages 2-457 to 2-464
*  jds    2/16/94
*
.SUBCKT 74LS151  D0 D1 D2 D3 D4 D5 D6 D7 A B C GBAR Y W
+  optional: DPWR=$G_DPWR DGND=$G_DGND
+  params: MNTYMXDLY=0 IO_LEVEL=0

U74LS151 LOGICEXP (12,2) DPWR DGND
+        D0 D1 D2 D3 D4 D5 D6 D7 A B C GBAR Y_O W_O
+        D0_GATE IO_LS MNTYMXDLY={MNTYMXDLY} IO_LEVEL={IO_LEVEL}
+
+    LOGIC:
+      g = {(~GBAR)}
+      abar = {(~A)}
+      bbar = {(~B)}
+      cbar = {(~C)}
+      a0 = {(D0 & abar & bbar & cbar & g)}
+      a1 = {(D1 & A & bbar & cbar & g)}
+      a2 = {(D2 & abar & B & cbar & g)}
+      a3 = {(D3 & A & B & cbar & g)}
+      a4 = {(D4 & abar & bbar & C & g)}
+      a5 = {(D5 & A & bbar & C & g)}
+      a6 = {(D6 & abar & B & C & g)}
+      a7 = {(D7 & A & B & C & g)}
+
+      W_O = { ~( a0 | a1 | a2 | a3 | a4 | a5 | a6 | a7 ) }
+      Y_O = { (~W_O) }

Udly PINDLY (2,0,12) DPWR DGND
+    W_O Y_O
+    D0 D1 D2 D3 D4 D5 D6 D7
+    A B C GBAR
+    W Y
+    IO_LS MNTYMXDLY={MNTYMXDLY} IO_LEVEL={IO_LEVEL}
+
+    BOOLEAN:
+       SELECT= { CHANGED(A,0) | CHANGED(B,0) | CHANGED(C,0) }
+       STROBE= { CHANGED(GBAR,0) }
+       DATA={ CHANGED(D0,0) | CHANGED(D1,0) | CHANGED(D2,0) | CHANGED(D3,0) |
+              CHANGED(D4,0) | CHANGED(D5,0) | CHANGED(D6,0) | CHANGED(D7,0) }
+
+    PINDLY:
+       W = {
+            CASE(
+                 SELECT & TRN_LH, DELAY(-1,14ns,23ns),
+                 SELECT & TRN_HL, DELAY(-1,20ns,32ns),
+                 STROBE & TRN_LH, DELAY(-1,15ns,24ns),
+                 STROBE & TRN_HL, DELAY(-1,18ns,30ns),
+                 DATA & TRN_LH, DELAY(-1,13ns,21ns),
+                 DATA & TRN_HL, DELAY(-1,12ns,20ns),
+                 DELAY(-1,20ns,33ns)
+                )
+            }
+       Y = {
+            CASE(
+                 SELECT & TRN_LH, DELAY(-1,27ns,43ns),
+                 SELECT & TRN_HL, DELAY(-1,18ns,30ns),
+                 STROBE & TRN_LH, DELAY(-1,26ns,42ns),
+                 STROBE & TRN_HL, DELAY(-1,20ns,32ns),
+                 DATA & TRN_LH, DELAY(-1,20ns,32ns),
+                 DATA & TRN_HL, DELAY(-1,16ns,26ns),
+                 DELAY(-1,28ns,44ns)
+                )
+            }

.ENDS 74LS151
*
*
* ----------------------------------------------------------- 74S151 ------
*  Data Selectors/Multiplexers
*
*  The TTL Logic Data Book, 1988, TI Pages 2-457 to 2-464
*  jds    2/16/94
*
.SUBCKT 74S151  D0 D1 D2 D3 D4 D5 D6 D7 A B C GBAR Y W
+  optional: DPWR=$G_DPWR DGND=$G_DGND
+  params: MNTYMXDLY=0 IO_LEVEL=0

U74S151 LOGICEXP (12,2) DPWR DGND
+        D0 D1 D2 D3 D4 D5 D6 D7 A B C GBAR Y_O W_O
+        D0_GATE IO_S MNTYMXDLY={MNTYMXDLY} IO_LEVEL={IO_LEVEL}
+
+    LOGIC:
+      g = {(~GBAR)}
+      abar = {(~A)}
+      bbar = {(~B)}
+      cbar = {(~C)}
+      a0 = {(D0 & abar & bbar & cbar & g)}
+      a1 = {(D1 & A & bbar & cbar & g)}
+      a2 = {(D2 & abar & B & cbar & g)}
+      a3 = {(D3 & A & B & cbar & g)}
+      a4 = {(D4 & abar & bbar & C & g)}
+      a5 = {(D5 & A & bbar & C & g)}
+      a6 = {(D6 & abar & B & C & g)}
+      a7 = {(D7 & A & B & C & g)}
+
+      W_O = { ~( a0 | a1 | a2 | a3 | a4 | a5 | a6 | a7 ) }
+      Y_O = { (~W_O) }

Udly PINDLY (2,0,12) DPWR DGND
+    W_O Y_O
+    D0 D1 D2 D3 D4 D5 D6 D7
+    A B C GBAR
+    W Y
+    IO_S MNTYMXDLY={MNTYMXDLY} IO_LEVEL={IO_LEVEL}
+
+    BOOLEAN:
+       SELECT= { CHANGED(A,0) | CHANGED(B,0) | CHANGED(C,0) }
+       STROBE= { CHANGED(GBAR,0) }
+       DATA={ CHANGED(D0,0) | CHANGED(D1,0) | CHANGED(D2,0) | CHANGED(D3,0) |
+              CHANGED(D4,0) | CHANGED(D5,0) | CHANGED(D6,0) | CHANGED(D7,0) }
+
+    PINDLY:
+       W = {
+            CASE(
+                 SELECT & TRN_LH, DELAY(-1,10ns,15ns),
+                 SELECT & TRN_HL, DELAY(-1,9ns,13.5ns),
+                 STROBE & TRN_LH, DELAY(-1,9ns,13ns),
+                 STROBE & TRN_HL, DELAY(-1,8.5ns,12ns),
+                 DATA & TRN_LH, DELAY(-1,4.5ns,7ns),
+                 DATA & TRN_HL, DELAY(-1,4.5ns,7ns),
+                 DELAY(-1,11ns,16ns)
+                )
+            }
+       Y = {
+            CASE(
+                 SELECT & TRN_LH, DELAY(-1,12ns,18ns),
+                 SELECT & TRN_HL, DELAY(-1,12ns,18ns),
+                 STROBE & TRN_LH, DELAY(-1,11ns,16.5ns),
+                 STROBE & TRN_HL, DELAY(-1,12ns,18ns),
+                 DATA & TRN_LH, DELAY(-1,8ns,12ns),
+                 DATA & TRN_HL, DELAY(-1,8ns,12ns),
+                 DELAY(-1,13ns,19ns)
+                )
+            }

.ENDS 74S151
*
*
* ----------------------------------------------------------- 74HC152 ------
*  8 Line to 1 Line Data Selectors/Multiplexers
*
*  The High Speed CMOS Logic Data Book, 1989, TI Pages 2-201 2-204
*  jds    2/25/94
*
.SUBCKT 74HC152  D0 D1 D2 D3 D4 D5 D6 D7 A B C W
+  optional: DPWR=$G_DPWR DGND=$G_DGND
+  params: MNTYMXDLY=0 IO_LEVEL=0
