* -------------------------------------------------------------------------
*    Spectrum Software, all rights reserved, copywrite 1994,
*    Micro-Cap V Digital Library
*
*    Parts in this library are modeled at ambient room temperature (TA=25øC)
*    unless otherwise noted.
*
*    DIGITAL LIBRARY range 74195 - 74XXX
*
*
* ----------------------------------------------------------- 74195 ------
*  4-Bit Parallel Access Shift Register
*
*  The TTL Logic Data Book, 1988, TI Pages 2-655 to 2-662
*  jds    5/20/94
*
.SUBCKT 74195  CLK SH/LDBAR J KBAR CLRBAR A B C D QA QB QC QD QDBAR
+  optional: DPWR=$G_DPWR DGND=$G_DGND
+  params: MNTYMXDLY=0 IO_LEVEL=0

U74195 LOGICEXP(13,9) DPWR DGND
+      CLK SH/LDBAR J KBAR CLRBAR A B C D QA_O QB_O QC_O qabar 
+      j0 j1 j2 j3 k0 k1 k2 k3 clock 
+      D0_GATE IO_STD MNTYMXDLY={MNTYMXDLY} IO_LEVEL={IO_LEVEL}
+
+    LOGIC:
+      clock = {(~(CLK & CLRBAR))}
+      k0 = {~((SH/LDBAR & J & qabar) | (SH/LDBAR & KBAR & QA_O) | (~SH/LDBAR & A))}
+      k1 = {~((QA_O & SH/LDBAR) | (~SH/LDBAR & B))}
+      k2 = {~((QB_O & SH/LDBAR) | (~SH/LDBAR & C))}
+      k3 = {~((QC_O & SH/LDBAR) | (~SH/LDBAR & D))}
+      j0 = {(~k0)}
+      j1 = {(~k1)}
+      j2 = {(~k2)}
+      j3 = {(~k3)}

Uf0  JKff(4)  DPWR DGND
+    $D_HI CLRBAR clock
+    j0 j1 j2 j3 k0 k1 k2 k3 
+    QA_O QB_O QC_O QD_O  qabar qbbar qcbar QDBAR_O
+    D0_EFF IO_STD MNTYMXDLY={MNTYMXDLY} IO_LEVEL={IO_LEVEL}

Udly PINDLY (5,0,2) DPWR DGND
+    QA_O QB_O QC_O QD_O QDBAR_O
+    CLK CLRBAR
+    QA QB QC QD QDBAR
+    IO_STD MNTYMXDLY={MNTYMXDLY} IO_LEVEL={IO_LEVEL}
+
+    BOOLEAN:
+     CLOCK = {CHANGED_LH(CLK,0)}
+     CLEAR = {CHANGED_HL(CLRBAR,0)}
+
+    PINDLY:
+       QA QB QC QD QDBAR = {
+            CASE(
+                 CLEAR, DELAY(-1,19ns,30ns),
+                 CLOCK & TRN_LH, DELAY(-1,14ns,22ns),
+                 CLOCK & TRN_HL, DELAY(-1,17ns,26ns),
+                 DELAY(-1,20ns,31ns)
+                )
+            }

Ucnstr CONSTRAINT(9) DPWR DGND
+    CLRBAR CLK A B C D J KBAR SH/LDBAR
+    IO_STD IO_LEVEL={IO_LEVEL}
+
+      FREQ:
+         NODE = CLK
+         MAXFREQ = 30MEG
+      WIDTH:
+         NODE = CLK
+         MIN_HI = 16ns
+      WIDTH:
+         NODE = CLRBAR
+         MIN_LO = 12ns
+      SETUP_HOLD:
+        CLOCK LH = CLK
+        DATA(6) = A B C D J KBAR
+        SETUPTIME = 20ns
+      SETUP_HOLD:
+        CLOCK LH = CLK
+        DATA(1) = CLRBAR
+        SETUPTIME_LO = 25ns
+      SETUP_HOLD:
+        CLOCK LH = CLK
+        DATA(1) = SH/LDBAR
+        SETUPTIME_LO = 25ns
+        SETUPTIME_HI = 10ns

.ENDS 74195
*
*
* ----------------------------------------------------------- 74AS195 ------
*  4-Bit Parallel Access Shift Register
*
*  The AS/ALS Logic Data Book, 1986, TI Pages 2-235 to 2-239
*  jds    5/20/94
*
.SUBCKT 74AS195  CLK SH/LDBAR J KBAR CLRBAR A B C D QA QB QC QD QDBAR
+  optional: DPWR=$G_DPWR DGND=$G_DGND
+  params: MNTYMXDLY=0 IO_LEVEL=0

U74AS195 LOGICEXP(13,9) DPWR DGND
+      CLK SH/LDBAR J KBAR CLRBAR A B C D QA_O QB_O QC_O qabar 
+      j0 j1 j2 j3 k0 k1 k2 k3 clock 
+      D0_GATE IO_AS00 MNTYMXDLY={MNTYMXDLY} IO_LEVEL={IO_LEVEL}
+
+    LOGIC:
+      clock = {(~(CLK & CLRBAR))}
+      k0 = {~((SH/LDBAR & J & qabar) | (SH/LDBAR & KBAR & QA_O) | (~SH/LDBAR & A)) }
+      k1 = { ~((QA_O & SH/LDBAR) |  (~SH/LDBAR & B)) }
+      k2 = { ~((QB_O & SH/LDBAR) |  (~SH/LDBAR & C)) }
+      k3 = { ~((QC_O & SH/LDBAR) |  (~SH/LDBAR & D)) }
+      j0 = {(~k0)}
+      j1 = {(~k1) }
+      j2 = {(~k2)}
+      j3 = {(~k3)}

uf0  JKff(4)  DPWR DGND
+    $D_HI CLRBAR clock
+    j0 j1 j2 j3 k0 k1 k2 k3 
+    QA_O QB_O QC_O QD_O  qabar qbbar qcbar QDBAR_O
+    D0_EFF IO_AS00

Udly PINDLY (5,0,2) DPWR DGND
+    QA_O QB_O QC_O QD_O QDBAR_O
+    CLK CLRBAR
+    QA QB QC QD QDBAR
+    IO_AS00 MNTYMXDLY={MNTYMXDLY} IO_LEVEL={IO_LEVEL}
+
+    BOOLEAN:
+     CLOCK = {CHANGED(CLK,0)}
+     CLEAR = { CHANGED(CLRBAR,0) }
+
+    PINDLY:
+       QA QB QC QD QDBAR = {
+            CASE(
+                 CLEAR & TRN_LH, DELAY(4ns,-1,8ns),
+                 CLEAR & TRN_HL, DELAY(5ns,-1,11.5ns),
+                 CLOCK & TRN_LH, DELAY(3ns,-1,8.5ns),
+                 CLOCK & TRN_HL, DELAY(2.5ns,-1,10.5ns),
+                 DELAY(6ns,-1,12.5ns)
+                )
+            }

Ucnstr CONSTRAINT(9) DPWR DGND
+          CLRBAR CLK A B C D J KBAR SH/LDBAR
+          IO_AS00
+
+      FREQ:
+         NODE = CLK
+         MAXFREQ = 70MEG
+      WIDTH:
+         NODE = CLK
+         MIN_HI = 4ns
+      WIDTH:
+         NODE = CLRBAR
+         MIN_LO = 4ns
+      SETUP_HOLD:
+        CLOCK LH = CLK
+        DATA(6) = A B C D J KBAR
+        SETUPTIME = 3.5ns
+        HOLDTIME = 0.5ns
+      SETUP_HOLD:
+        CLOCK LH = CLK
+        DATA(1) = SH/LDBAR
+        SETUPTIME_HI = 8ns
+      SETUP_HOLD:
+        CLOCK LH = CLK
+        DATA(1) = CLRBAR
+        SETUPTIME_LO = 6ns

.ENDS 74AS195

* ------------------------------------------------------------74F195-------

* 4 Bit Parallel Access Shift Register
* Philips FAST TTL Data Handbook, 1992, pages 287 to 292
* jat 7/9/96

.SUBCKT 74F195 CP PEBAR J KBAR MRBAR D0 D1 D2 D3 Q0 Q1 Q2 Q3 Q3BAR
+ OPTIONAL: DPWR=$G_DPWR DGND=$G_DGND
+ PARAMS: MNTYMXDLY=0 IO_LEVEL=0

U1 LOGICEXP(12,9) DPWR DGND
+ CP PEBAR J KBAR D0 D1 D2 D3 Q0O Q1O Q2O Q0BAR
+ CPBAR J0 K0 J1 K1 J2 K2 J3 K3
+ D0_GATE IO_F MNTYMXDLY={MNTYMXDLY} IO_LEVEL={IO_LEVEL}
+ LOGIC:
+   CPBAR = {~CP}
+   J0 = {(~PEBAR & D0) | (Q0O & KBAR & PEBAR) | (PEBAR & J & Q0BAR)}
+   K0 = {~J0}
+   J1 = {(~PEBAR & D1) | (Q0O & PEBAR)}
+   K1 = {~J1}
+   J2 = {(~PEBAR & D2) | (Q1O & PEBAR)}
+   K2 = {~J2}
+   J3 = {(~PEBAR & D3) | (Q2O & PEBAR)}
+   K3 = {~J3}

U2 JKFF(4) DPWR DGND
+ $D_HI MRBAR CPBAR
+ J0 J1 J2 J3 K0 K1 K2 K3
+ Q0O Q1O Q2O Q3O
+ Q0BAR $D_NC $D_NC Q3BARO
+ D0_EFF IO_F MNTYMXDLY={MNTYMXDLY} IO_LEVEL={IO_LEVEL}

U3 PINDLY(5,0,2) DPWR DGND
+ Q0O Q1O Q2O Q3O Q3BARO
+ MRBAR CP
+ Q0 Q1 Q2 Q3 Q3BAR
+ IO_F MNTYMXDLY={MNTYMXDLY} IO_LEVEL={IO_LEVEL}
+ BOOLEAN:
+   RESET = {CHANGED_HL(MRBAR,0)}
+   EDGE = {CHANGED_LH(CP,0)}
+ PINDLY:
+   Q0 Q1 Q2 Q3 = {
+     CASE(
+       RESET & TRN_HL, DELAY(5NS,7.5NS,10.5NS),
+       EDGE & TRN_LH, DELAY(4NS,6.5NS,9.5NS),
+       EDGE & TRN_HL, DELAY(4NS,6.5NS,9NS),
+       DELAY(6NS,8.5NS,11.5NS))}
+   Q3BAR = {
+     CASE(
+       RESET & TRN_LH, DELAY(7NS,10NS,13.5NS),
+       EDGE & TRN_LH, DELAY(7NS,10NS,13NS),
+       EDGE & TRN_HL, DELAY(4.5NS,7NS,9NS),
+       DELAY(8NS,11NS,14.5NS))}

U4 CONSTRAINT(9) DPWR DGND
+ J KBAR D0 D1 D2 D3 CP PEBAR MRBAR
+ IO_F IO_LEVEL={IO_LEVEL}
+ FREQ:
+   NODE = CP
+   MAXFREQ = 115MEG
+ WIDTH:
+   NODE = CP
+   MIN_HI = 6NS
+ WIDTH:
+   NODE = MRBAR
+   MIN_LO = 5NS
+ SETUP_HOLD:
+   CLOCK LH = CP
+   DATA(6) = D0 D1 D2 D3 J KBAR
+   SETUPTIME = 4NS
+ SETUP_HOLD:
+   CLOCK LH = CP
+   DATA(1) = PEBAR
+   SETUPTIME_HI = 3NS
+   SETUPTIME_LO = 4NS
+ SETUP_HOLD:
+   CLOCK LH = CP
+   DATA(1) = MRBAR
+   SETUPTIME_HI = 6NS

.ENDS 74F195

* ------------------------------------------------------------74F195A-------

* 4 Bit Parallel Access Shift Register
* Philips FAST TTL Data Handbook, 1992, pages 287 to 292
* jat 7/9/96

.SUBCKT 74F195A CP PEBAR J KBAR MRBAR D0 D1 D2 D3 Q0 Q1 Q2 Q3 Q3BAR
+ OPTIONAL: DPWR=$G_DPWR DGND=$G_DGND
+ PARAMS: MNTYMXDLY=0 IO_LEVEL=0

U1 LOGICEXP(12,9) DPWR DGND
+ CP PEBAR J KBAR D0 D1 D2 D3 Q0O Q1O Q2O Q0BAR
+ CPBAR J0 K0 J1 K1 J2 K2 J3 K3
+ D0_GATE IO_F MNTYMXDLY={MNTYMXDLY} IO_LEVEL={IO_LEVEL}
+ LOGIC:
+   CPBAR = {~CP}
+   J0 = {(~PEBAR & D0) | (Q0O & KBAR & PEBAR) | (PEBAR & J & Q0BAR)}
+   K0 = {~J0}
+   J1 = {(~PEBAR & D1) | (Q0O & PEBAR)}
+   K1 = {~J1}
+   J2 = {(~PEBAR & D2) | (Q1O & PEBAR)}
+   K2 = {~J2}
+   J3 = {(~PEBAR & D3) | (Q2O & PEBAR)}
+   K3 = {~J3}

U2 JKFF(4) DPWR DGND
+ $D_HI MRBAR CPBAR
+ J0 J1 J2 J3 K0 K1 K2 K3
+ Q0O Q1O Q2O Q3O
+ Q0BAR $D_NC $D_NC Q3BARO
+ D0_EFF IO_F MNTYMXDLY={MNTYMXDLY} IO_LEVEL={IO_LEVEL}

U3 PINDLY(5,0,2) DPWR DGND
+ Q0O Q1O Q2O Q3O Q3BARO
+ MRBAR CP
+ Q0 Q1 Q2 Q3 Q3BAR
+ IO_F MNTYMXDLY={MNTYMXDLY} IO_LEVEL={IO_LEVEL}
+ BOOLEAN:
+   RESET = {CHANGED_HL(MRBAR,0)}
+   EDGE = {CHANGED_LH(CP,0)}
+ PINDLY:
+   Q0 Q1 Q2 Q3 = {
+     CASE(
+       RESET & TRN_HL, DELAY(2NS,4NS,7NS),
+       EDGE & TRN_LH, DELAY(3NS,5NS,9.5NS),
+       EDGE & TRN_HL, DELAY(2.5NS,4NS,7NS),
+       DELAY(4NS,6NS,10.5NS))}
+   Q3BAR = {
+     CASE(
+       RESET & TRN_LH, DELAY(2.5NS,4.5NS,8NS),
+       EDGE & TRN_LH, DELAY(2NS,5.5NS,9.5NS),
+       EDGE & TRN_HL, DELAY(2NS,4NS,6.5NS),
+       DELAY(4.5NS,6.5NS,10.5NS))}

U4 CONSTRAINT(9) DPWR DGND
+ J KBAR D0 D1 D2 D3 CP PEBAR MRBAR
+ IO_F IO_LEVEL={IO_LEVEL}
+ FREQ:
+   NODE = CP
+   MAXFREQ = 180MEG
+ WIDTH:
+   NODE = CP
+   MIN_HI = 4.5NS
+ WIDTH:
+   NODE = MRBAR
+   MIN_LO = 4.5NS
+ SETUP_HOLD:
+   CLOCK LH = CP
+   DATA(6) = D0 D1 D2 D3 J KBAR
+   SETUPTIME = 2.5NS
+   HOLDTIME_LO = 1NS
+ SETUP_HOLD:
+   CLOCK LH = CP
+   DATA(1) = PEBAR
+   SETUPTIME_HI = 2NS
+   SETUPTIME_LO = 2.5NS
+ SETUP_HOLD:
+   CLOCK LH = CP
+   DATA(1) = MRBAR
+   SETUPTIME_HI = 2.5NS

.ENDS 74F195A

* ----------------------------------------------------------- 74HC195 ------
*  4-Bit Parallel Access Shift Register
*
*  The High Speed CMOS Logic Data Book, 1989, TI Pages 2-285 to 2-289
*  jds    5/20/94
*
.SUBCKT 74HC195  CLK SH/LDBAR J KBAR CLRBAR A B C D QA QB QC QD QDBAR
+  optional: DPWR=$G_DPWR DGND=$G_DGND
+  params: MNTYMXDLY=0 IO_LEVEL=0

U74HC195 LOGICEXP(13,9) DPWR DGND
+      CLK SH/LDBAR J KBAR CLRBAR A B C D QA_O QB_O QC_O qabar 
+      j0 j1 j2 j3 k0 k1 k2 k3 clock 
+      D0_GATE IO_HC MNTYMXDLY={MNTYMXDLY} IO_LEVEL={IO_LEVEL}
+
+    LOGIC:
+      clock = {(~(CLK & CLRBAR))}
+      k0 = {~((SH/LDBAR & J & qabar) | (SH/LDBAR & KBAR & QA_O) | (~SH/LDBAR & A)) }
+      k1 = { ~((QA_O & SH/LDBAR) |  (~SH/LDBAR & B)) }
+      k2 = { ~((QB_O & SH/LDBAR) |  (~SH/LDBAR & C)) }
+      k3 = { ~((QC_O & SH/LDBAR) |  (~SH/LDBAR & D)) }
+      j0 = {(~k0)}
+      j1 = {(~k1) }
+      j2 = {(~k2)}
+      j3 = {(~k3)}

uf0  JKff(4)  DPWR DGND
+    $D_HI CLRBAR clock
+    j0 j1 j2 j3 k0 k1 k2 k3 
+    QA_O QB_O QC_O QD_O  qabar qbbar qcbar QDBAR_O
+    D0_EFF IO_HC

Udly PINDLY (5,0,2) DPWR DGND
+    QA_O QB_O QC_O QD_O QDBAR_O
+    CLK CLRBAR
+    QA QB QC QD QDBAR
+    IO_HC MNTYMXDLY={MNTYMXDLY} IO_LEVEL={IO_LEVEL}
+
+    BOOLEAN:
+     CLOCK = {CHANGED(CLK,0)}
+     CLEAR = { CHANGED(CLRBAR,0) }
+
+    PINDLY:
+       QA QB QC QD QDBAR = {
+            CASE(
+                 CLEAR, DELAY(-1,17ns,30ns),
+                 CLOCK, DELAY(-1,17ns,29ns),
+                 DELAY(-1,18ns,31ns)
+                )
+            }

Ucnstr CONSTRAINT(9) DPWR DGND
+          CLRBAR CLK A B C D J KBAR SH/LDBAR
+          IO_HC
+
+      FREQ:
+         NODE = CLK
+         MAXFREQ = 31MEG
+      WIDTH:
+         NODE = CLK
+         MIN_HI = 16ns
+      WIDTH:
+         NODE = CLRBAR
+         MIN_LO = 16ns
+      SETUP_HOLD:
+        CLOCK LH = CLK
+        DATA(7) = A B C D J KBAR SH/LDBAR 
+        SETUPTIME = 20ns
+      SETUP_HOLD:
+        CLOCK LH = CLK
+        DATA(1) = CLRBAR
+        SETUPTIME_LO = 20ns

.ENDS 74HC195

* ------------------------------------------------------------74HCT195-------

* 4 Bit Parallel Access Shift Register
* Philips High-Speed CMOS Logic Family Data Handbook, 1994, pages 453 to 457
* jat 9/10/96

.SUBCKT 74HCT195 CP PEBAR J KBAR MRBAR D0 D1 D2 D3 Q0 Q1 Q2 Q3 Q3BAR
+ OPTIONAL: DPWR=$G_DPWR DGND=$G_DGND
+ PARAMS: MNTYMXDLY=0 IO_LEVEL=0

U1 LOGICEXP(12,9) DPWR DGND
+ CP PEBAR J KBAR D0 D1 D2 D3 Q0O Q1O Q2O Q0BAR
+ CPBAR J0 K0 J1 K1 J2 K2 J3 K3
+ D0_GATE IO_HCT MNTYMXDLY={MNTYMXDLY} IO_LEVEL={IO_LEVEL}
+ LOGIC:
+   CPBAR = {~CP}
+   J0 = {(~PEBAR & D0) | (Q0O & KBAR & PEBAR) | (PEBAR & J & Q0BAR)}
+   K0 = {~J0}
+   J1 = {(~PEBAR & D1) | (Q0O & PEBAR)}
+   K1 = {~J1}
+   J2 = {(~PEBAR & D2) | (Q1O & PEBAR)}
+   K2 = {~J2}
+   J3 = {(~PEBAR & D3) | (Q2O & PEBAR)}
+   K3 = {~J3}

U2 JKFF(4) DPWR DGND
+ $D_HI MRBAR CPBAR
+ J0 J1 J2 J3 K0 K1 K2 K3
+ Q0O Q1O Q2O Q3O
+ Q0BAR $D_NC $D_NC Q3BARO
+ D0_EFF IO_HCT MNTYMXDLY={MNTYMXDLY} IO_LEVEL={IO_LEVEL}

U3 PINDLY(5,0,2) DPWR DGND
+ Q0O Q1O Q2O Q3O Q3BARO
+ MRBAR CP
+ Q0 Q1 Q2 Q3 Q3BAR
+ IO_HCT MNTYMXDLY={MNTYMXDLY} IO_LEVEL={IO_LEVEL}
+ BOOLEAN:
+   RESET = {CHANGED_HL(MRBAR,0)}
+   EDGE = {CHANGED_LH(CP,0)}
+ PINDLY:
+   Q0 Q1 Q2 Q3 = {
+     CASE(
+       RESET & TRN_HL, DELAY(-1,15NS,30NS),
+       EDGE & TRN_LH, DELAY(-1,18NS,30NS),
+       EDGE & TRN_HL, DELAY(-1,18NS,30NS),
+       DELAY(-1,19NS,31NS))}
+   Q3BAR = {
+     CASE(
+       RESET & TRN_LH, DELAY(-1,15NS,30NS),
+       EDGE & TRN_LH, DELAY(-1,18NS,30NS),
+       EDGE & TRN_HL, DELAY(-1,18NS,30NS),
+       DELAY(-1,19NS,31NS))}

U4 CONSTRAINT(9) DPWR DGND
+ J KBAR D0 D1 D2 D3 CP PEBAR MRBAR
+ IO_HCT IO_LEVEL={IO_LEVEL}
+ FREQ:
+   NODE = CP
+   MAXFREQ = 52MEG
+ WIDTH:
+   NODE = CP
+   MIN_HI = 6NS
+   MIN_LO = 6NS
+ WIDTH:
+   NODE = MRBAR
+   MIN_LO = 4NS
+ SETUP_HOLD:
+   CLOCK LH = CP
+   DATA(6) = D0 D1 D2 D3 KBAR PEBAR
+   SETUPTIME = 9NS
+ SETUP_HOLD:
+   CLOCK LH = CP
+   DATA(1) = J
+   SETUPTIME = 12NS
+ SETUP_HOLD:
+   CLOCK LH = CP
+   DATA(1) = MRBAR
+   SETUPTIME_HI = 6NS

.ENDS 74HCT195

* ----------------------------------------------------------- 74LS195A ------
*  4-Bit Parallel Access Shift Register
*
*  The TTL Logic Data Book, 1988, TI Pages 2-655 to 2-662
*  jds    5/20/94
*
.SUBCKT 74LS195A  CLK SH/LDBAR J KBAR CLRBAR A B C D QA QB QC QD QDBAR
+  optional: DPWR=$G_DPWR DGND=$G_DGND
+  params: MNTYMXDLY=0 IO_LEVEL=0

U74LS195A LOGICEXP(13,9) DPWR DGND
+      CLK SH/LDBAR J KBAR CLRBAR A B C D QA_O QB_O QC_O qabar 
+      j0 j1 j2 j3 k0 k1 k2 k3 clock 
+      D0_GATE IO_LS MNTYMXDLY={MNTYMXDLY} IO_LEVEL={IO_LEVEL}
+
+    LOGIC:
+      clock = {(~(CLK & CLRBAR))}
+      k0 = {~((SH/LDBAR & J & qabar) | (SH/LDBAR & KBAR & QA_O) | (~SH/LDBAR & A)) }
+      k1 = { ~((QA_O & SH/LDBAR) |  (~SH/LDBAR & B)) }
+      k2 = { ~((QB_O & SH/LDBAR) |  (~SH/LDBAR & C)) }
+      k3 = { ~((QC_O & SH/LDBAR) |  (~SH/LDBAR & D)) }
+      j0 = {(~k0)}
+      j1 = {(~k1) }
+      j2 = {(~k2)}
+      j3 = {(~k3)}

uf0  JKff(4)  DPWR DGND
+    $D_HI CLRBAR clock
+    j0 j1 j2 j3 k0 k1 k2 k3 
+    QA_O QB_O QC_O QD_O  qabar qbbar qcbar QDBAR_O
+    D0_EFF IO_STD

Udly PINDLY (5,0,2) DPWR DGND
+    QA_O QB_O QC_O QD_O QDBAR_O
+    CLK CLRBAR
+    QA QB QC QD QDBAR
+    IO_LS MNTYMXDLY={MNTYMXDLY} IO_LEVEL={IO_LEVEL}
+
+    BOOLEAN:
+     CLOCK = {CHANGED(CLK,0)}
+     CLEAR = { CHANGED(CLRBAR,0) }
+
+    PINDLY:
+       QA QB QC QD QDBAR = {
+            CASE(
+                 CLEAR, DELAY(-1,19ns,30ns),
+                 CLOCK & TRN_LH, DELAY(-1,14ns,22ns),
+                 CLOCK & TRN_HL, DELAY(-1,17ns,26ns),
+                 DELAY(-1,20ns,31ns)
+                )
+            }

Ucnstr CONSTRAINT(9) DPWR DGND
+          CLRBAR CLK A B C D J KBAR SH/LDBAR
+          IO_LS
+
+      FREQ:
+         NODE = CLK
+         MAXFREQ = 30MEG
+      WIDTH:
+         NODE = CLK
+         MIN_HI = 16ns
+      WIDTH:
+         NODE = CLRBAR
+         MIN_LO = 12ns
+      SETUP_HOLD:
+        CLOCK LH = CLK
+        DATA(6) = A B C D J KBAR
+        SETUPTIME = 15ns
+      SETUP_HOLD:
+        CLOCK LH = CLK
+        DATA(1) = CLRBAR
+        SETUPTIME_LO = 25ns
+      SETUP_HOLD:
+        CLOCK LH = CLK
+        DATA(1) = SH/LDBAR
+        SETUPTIME_LO = 25ns
*        SETUPTIME_HI = 20ns

.ENDS 74LS195A
*
*
* ----------------------------------------------------------- 74S195 ------
*  4-Bit Parallel Access Shift Register
*
*  The TTL Logic Data Book, 1988, TI Pages 2-655 to 2-662
*  jds    5/20/94
*
.SUBCKT 74S195  CLK SH/LDBAR J KBAR CLRBAR A B C D QA QB QC QD QDBAR
+  optional: DPWR=$G_DPWR DGND=$G_DGND
+  params: MNTYMXDLY=0 IO_LEVEL=0

U74S195 LOGICEXP(13,9) DPWR DGND
+      CLK SH/LDBAR J KBAR CLRBAR A B C D QA_O QB_O QC_O qabar 
+      j0 j1 j2 j3 k0 k1 k2 k3 clock 
+      D0_GATE IO_S MNTYMXDLY={MNTYMXDLY} IO_LEVEL={IO_LEVEL}
+
+    LOGIC:
+      clock = {(~(CLK & CLRBAR))}
+      k0 = {~((SH/LDBAR & J & qabar) | (SH/LDBAR & KBAR & QA_O) | (~SH/LDBAR & A)) }
+      k1 = { ~((QA_O & SH/LDBAR) |  (~SH/LDBAR & B)) }
+      k2 = { ~((QB_O & SH/LDBAR) |  (~SH/LDBAR & C)) }
+      k3 = { ~((QC_O & SH/LDBAR) |  (~SH/LDBAR & D)) }
+      j0 = {(~k0)}
+      j1 = {(~k1) }
+      j2 = {(~k2)}
+      j3 = {(~k3)}

uf0  JKff(4)  DPWR DGND
+    $D_HI CLRBAR clock
+    j0 j1 j2 j3 k0 k1 k2 k3 
+    QA_O QB_O QC_O QD_O  qabar qbbar qcbar QDBAR_O
+    D0_EFF IO_S

Udly PINDLY (5,0,2) DPWR DGND
+    QA_O QB_O QC_O QD_O QDBAR_O
+    CLK CLRBAR
+    QA QB QC QD QDBAR
+    IO_STD MNTYMXDLY={MNTYMXDLY} IO_LEVEL={IO_LEVEL}
+
+    BOOLEAN:
+     CLOCK = {CHANGED(CLK,0)}
+     CLEAR = { CHANGED(CLRBAR,0) }
+
+    PINDLY:
+       QA QB QC QD QDBAR = {
+            CASE(
+                 CLEAR & TRN_HL, DELAY(-1,12.5ns,18.5ns),
+                 CLOCK & TRN_LH, DELAY(-1,8ns,12ns),
+                 CLOCK & TRN_HL, DELAY(-1,11ns,16.5ns),
+                 DELAY(-1,13.5ns,19.5ns)
+                )
+            }

Ucnstr CONSTRAINT(9) DPWR DGND
+          CLRBAR CLK A B C D J KBAR SH/LDBAR
+          IO_S
+
+      FREQ:
+         NODE = CLK
+         MAXFREQ = 70MEG
+      WIDTH:
+         NODE = CLK
+         MIN_HI = 7ns
+      WIDTH:
+         NODE = CLRBAR
+         MIN_LO = 12ns
+      SETUP_HOLD:
+        CLOCK LH = CLK
+        DATA(6) = A B C D J KBAR
+        SETUPTIME = 5ns
+        HOLDTIME = 3ns
+      SETUP_HOLD:
+        CLOCK LH = CLK
+        DATA(1) = CLRBAR
+        SETUPTIME_LO = 9ns
+      SETUP_HOLD:
+        CLOCK LH = CLK
+        DATA(1) = SH/LDBAR
+        SETUPTIME_LO = 11ns
*        SETUPTIME_HI = 6ns

.ENDS 74S195
*
*
* ----------------------------------------------------------- 74196 ------
*  4-Bit Programmable Counter
*
*  The TTL Logic Data Book, 1988, TI Pages 2-655 to 2-662
*  jds    5/20/94
*
.SUBCKT 74196 CLK1 CLK2 LOADBAR CLRBAR A B C D QA QB QC QD
+  optional: DPWR=$G_DPWR DGND=$G_DGND
+  params: MNTYMXDLY=0 IO_LEVEL=0

U74196 LOGICEXP (8,9) DPWR DGND
+      A B C D LOADBAR CLRBAR QB_O QC_O
+      s0 s1 s2 s3 r0 r1 r2 r3 j3
+      D0_GATE IO_STD MNTYMXDLY={MNTYMXDLY} IO_LEVEL={IO_LEVEL}
+
+    LOGIC:
+      s0 = {~(A & CLRBAR & (~(LOADBAR & CLRBAR)))}
+      r0 = {~(s0 & (~(LOADBAR & CLRBAR)))}
+      s1 = {~(B & CLRBAR & (~(LOADBAR & CLRBAR)))}
+      r1 = {~(s1 & (~(LOADBAR & CLRBAR)))}
+      s2 = {~(C & CLRBAR & (~(LOADBAR & CLRBAR)))}
+      r2 = {~(s2 & (~(LOADBAR & CLRBAR)))}
+      s3 = {~(D & CLRBAR & (~(LOADBAR & CLRBAR)))}
+      r3 = {~(s3 & (~(LOADBAR & CLRBAR)))}
+      j3 = {(QB_O & QC_O)}

uf0  JKff(1)  DPWR DGND
+    s0 r0 CLK1
+    $D_HI $D_HI QA_O qabar
+    D0_EFF IO_STD

uf1  JKff(1)  DPWR DGND
+    s1 r1 CLK2
+    qdbar qdbar QB_O qbbar
+    D0_EFF IO_STD

uf2  JKff(1)  DPWR DGND
+    s2 r2 QB_O
+    $D_HI $D_HI QC_O qcbar
+    D0_EFF IO_STD

uf3  JKff(1)  DPWR DGND
+    s3 r3 CLK2
+    j3 QD_O QD_O qdbar
+    D0_EFF IO_STD

Udly PINDLY (4,0,8) DPWR DGND
+    QA_O QB_O QC_O QD_O 
+    CLK1 CLK2 CLRBAR A B C D LOADBAR 
+    QA QB QC QD
+    IO_STD MNTYMXDLY={MNTYMXDLY} IO_LEVEL={IO_LEVEL}
+
+    BOOLEAN:
+     CK1= {CHANGED(CLK1,0)}
+     CK2= {CHANGED(CLK2,0)}
+     CLEAR = { CHANGED(CLRBAR,0) }
+     LOAD = { CHANGED(LOADBAR,0) }
+     DATA = { CHANGED(A,0) | CHANGED(B,0) | CHANGED(C,0) | CHANGED(D,0) }
+
+    PINDLY:
+       QA = {
+            CASE(
+                 CLEAR & TRN_HL, DELAY(-1,25ns,37ns),
+                 CK1 & TRN_LH, DELAY(-1,7ns,12ns),
+                 CK1 & TRN_HL, DELAY(-1,10ns,15ns),
+                 DATA & TRN_LH, DELAY(-1,16ns,24ns),
+                 DATA & TRN_HL, DELAY(-1,25ns,38ns),
+                 LOAD & TRN_LH, DELAY(-1,22ns,33ns),
+                 LOAD & TRN_HL, DELAY(-1,24ns,36ns),
+                 DELAY(-1,26ns,39ns)
+                )
+            }
+       QB  = {
+            CASE(
+                 CLEAR & TRN_HL, DELAY(-1,25ns,37ns),
+                 CK2 & TRN_LH, DELAY(-1,12ns,18ns),
+                 CK2 & TRN_HL, DELAY(-1,14ns,21ns),
+                 DATA & TRN_LH, DELAY(-1,16ns,24ns),
+                 DATA & TRN_HL, DELAY(-1,25ns,38ns),
+                 LOAD & TRN_LH, DELAY(-1,22ns,33ns),
+                 LOAD & TRN_HL, DELAY(-1,24ns,36ns),
+                 DELAY(-1,26ns,39ns)
+                )
+            }
+       QC  = {
+            CASE(
+                 CLEAR & TRN_HL, DELAY(-1,25ns,37ns),
+                 CK2 & TRN_LH, DELAY(-1,24ns,36ns),
+                 CK2 & TRN_HL, DELAY(-1,28ns,42ns),
+                 DATA & TRN_LH, DELAY(-1,16ns,24ns),
+                 DATA & TRN_HL, DELAY(-1,25ns,38ns),
+                 LOAD & TRN_LH, DELAY(-1,22ns,33ns),
+                 LOAD & TRN_HL, DELAY(-1,24ns,36ns),
+                 DELAY(-1,26ns,39ns)
+                )
+            }
+       QD  = {
+            CASE(
+                 CLEAR & TRN_HL, DELAY(-1,25ns,37ns),
+                 CK2 & TRN_LH, DELAY(-1,14ns,21ns),
+                 CK2 & TRN_HL, DELAY(-1,12ns,18ns),
+                 DATA & TRN_LH, DELAY(-1,16ns,24ns),
+                 DATA & TRN_HL, DELAY(-1,25ns,38ns),
+                 LOAD & TRN_LH, DELAY(-1,22ns,33ns),
+                 LOAD & TRN_HL, DELAY(-1,24ns,36ns),
+                 DELAY(-1,26ns,39ns)
+                )
+            }

Ucnstr CONSTRAINT(8) DPWR DGND
+          CLRBAR LOADBAR CLK1 CLK2  A B C D
+          IO_STD
+
+      FREQ:
+         NODE = CLK1
+         MAXFREQ = 50MEG
+      FREQ:
+         NODE = CLK2
+         MAXFREQ = 25MEG
+      WIDTH:
+         NODE = CLK1
+         MIN_HI = 10ns
+      WIDTH:
+         NODE = CLK2
+         MIN_HI = 20ns
+      WIDTH:
+         NODE = CLRBAR
+         MIN_LO = 15ns
+      WIDTH:
+         NODE = LOADBAR
+         MIN_LO = 20ns
+      SETUP_HOLD:
+        CLOCK HL = LOADBAR
+        DATA(4) = A B C D 
+        SETUPTIME_HI = 10ns
+         SETUPTIME_LO = 15ns
+      SETUP_HOLD:
+        CLOCK HL = CLK1
+        DATA(2) = CLRBAR LOADBAR
+        SETUPTIME_LO = 20ns
+      SETUP_HOLD:
+        CLOCK HL = CLK2
+        DATA(2) = CLRBAR LOADBAR
+        SETUPTIME_LO = 20ns

.ENDS 74196
*
*
* ----------------------------------------------------------- 74LS196 ------
*  4-Bit Programmable Counter
*
*  The TTL Logic Data Book, 1988, TI Pages 2-655 to 2-662
*  jds    5/20/94
*
.SUBCKT 74LS196 CLK1 CLK2 LOADBAR CLRBAR A B C D QA QB QC QD
+  optional: DPWR=$G_DPWR DGND=$G_DGND
+  params: MNTYMXDLY=0 IO_LEVEL=0

U74LS196 LOGICEXP (8,9) DPWR DGND
+      A B C D LOADBAR CLRBAR QB_O QC_O
+      s0 s1 s2 s3 r0 r1 r2 r3 j3
+      D0_GATE IO_LS MNTYMXDLY={MNTYMXDLY} IO_LEVEL={IO_LEVEL}
+
+    LOGIC:
+      s0 = {~(A & CLRBAR & (~(LOADBAR & CLRBAR)))}
+      r0 = {~(s0 & (~(LOADBAR & CLRBAR)))}
+      s1 = {~(B & CLRBAR & (~(LOADBAR & CLRBAR)))}
+      r1 = {~(s1 & (~(LOADBAR & CLRBAR)))}
+      s2 = {~(C & CLRBAR & (~(LOADBAR & CLRBAR)))}
+      r2 = {~(s2 & (~(LOADBAR & CLRBAR)))}
+      s3 = {~(D & CLRBAR & (~(LOADBAR & CLRBAR)))}
+      r3 = {~(s3 & (~(LOADBAR & CLRBAR)))}
+      j3 = {(QB_O & QC_O)}

uf0  JKff(1)  DPWR DGND
+    s0 r0 CLK1
+    $D_HI $D_HI QA_O qabar
+    D0_EFF IO_LS

uf1  JKff(1)  DPWR DGND
+    s1 r1 CLK2
+    qdbar qdbar QB_O qbbar
+    D0_EFF IO_LS

uf2  JKff(1)  DPWR DGND
+    s2 r2 QB_O
+    $D_HI $D_HI QC_O qcbar
+    D0_EFF IO_LS

uf3  JKff(1)  DPWR DGND
+    s3 r3 CLK2
+    j3 QD_O QD_O qdbar
+    D0_EFF IO_LS

Udly PINDLY (4,0,8) DPWR DGND
+    QA_O QB_O QC_O QD_O 
+    CLK1 CLK2 CLRBAR A B C D LOADBAR 
+    QA QB QC QD
+    IO_LS MNTYMXDLY={MNTYMXDLY} IO_LEVEL={IO_LEVEL}
+
+    BOOLEAN:
+     CK1= {CHANGED(CLK1,0)}
+     CK2= {CHANGED(CLK2,0)}
+     CLEAR = { CHANGED(CLRBAR,0) }
+     LOAD = { CHANGED(LOADBAR,0) }
+     DATA = { CHANGED(A,0) | CHANGED(B,0) | CHANGED(C,0) | CHANGED(D,0) }
+
+    PINDLY:
+       QA = {
+            CASE(
+                 CLEAR & TRN_HL, DELAY(-1,34ns,51ns),
+                 CK1 & TRN_LH, DELAY(-1,8ns,15ns),
+                 CK1 & TRN_HL, DELAY(-1,13ns,20ns),
+                 DATA & TRN_LH, DELAY(-1,20ns,30ns),
+                 DATA & TRN_HL, DELAY(-1,29ns,44ns),
+                 LOAD & TRN_LH, DELAY(-1,27ns,41ns),
+                 LOAD & TRN_HL, DELAY(-1,30ns,45ns),
+                 DELAY(-1,35ns,52ns)
+                )
+            }
+       QB  = {
+            CASE(
+                 CLEAR & TRN_HL, DELAY(-1,34ns,51ns),
+                 CK2 & TRN_LH, DELAY(-1,16ns,24ns),
+                 CK2 & TRN_HL, DELAY(-1,22ns,33ns),
+                 DATA & TRN_LH, DELAY(-1,20ns,30ns),
+                 DATA & TRN_HL, DELAY(-1,29ns,44ns),
+                 LOAD & TRN_LH, DELAY(-1,27ns,41ns),
+                 LOAD & TRN_HL, DELAY(-1,30ns,45ns),
+                 DELAY(-1,35ns,52ns)
+                )
+            }
+       QC  = {
+            CASE(
+                 CLEAR & TRN_HL, DELAY(-1,34ns,51ns),
+                 CK2 & TRN_LH, DELAY(-1,38ns,57ns),
+                 CK2 & TRN_HL, DELAY(-1,41ns,62ns),
+                 DATA & TRN_LH, DELAY(-1,20ns,30ns),
+                 DATA & TRN_HL, DELAY(-1,29ns,44ns),
+                 LOAD & TRN_LH, DELAY(-1,27ns,41ns),
+                 LOAD & TRN_HL, DELAY(-1,30ns,45ns),
+                 DELAY(-1,42ns,63ns)
+                )
+            }
+       QD  = {
+            CASE(
+                 CLEAR & TRN_HL, DELAY(-1,34ns,51ns),
+                 CK2 & TRN_LH, DELAY(-1,12ns,18ns),
+                 CK2 & TRN_HL, DELAY(-1,30ns,45ns),
+                 DATA & TRN_LH, DELAY(-1,20ns,30ns),
+                 DATA & TRN_HL, DELAY(-1,29ns,44ns),
+                 LOAD & TRN_LH, DELAY(-1,27ns,41ns),
+                 LOAD & TRN_HL, DELAY(-1,30ns,45ns),
+                 DELAY(-1,35ns,52ns)
+                )
+            }

Ucnstr CONSTRAINT(8) DPWR DGND
+          CLRBAR LOADBAR CLK1 CLK2  A B C D
+          IO_LS
+
+      FREQ:
+         NODE = CLK1
+         MAXFREQ = 30MEG
+      FREQ:
+         NODE = CLK2
+         MAXFREQ = 15MEG
+      WIDTH:
+         NODE = CLK1
+         MIN_HI = 20ns
+      WIDTH:
+         NODE = CLK2
+         MIN_HI = 30ns
+      WIDTH:
+         NODE = CLRBAR
+         MIN_LO = 15ns
+      WIDTH:
+         NODE = LOADBAR
+         MIN_LO = 20ns
+      SETUP_HOLD:
+        CLOCK HL = LOADBAR
+        DATA(4) = A B C D 
+        SETUPTIME_HI = 10ns
+         SETUPTIME_LO = 15ns
+      SETUP_HOLD:
+        CLOCK HL = CLK1
+        DATA(2) = CLRBAR LOADBAR
+        SETUPTIME_LO = 30ns
+      SETUP_HOLD:
+        CLOCK HL = CLK2
+        DATA(2) = CLRBAR LOADBAR
+        SETUPTIME_LO = 50ns

.ENDS 74LS196
*
*
* ----------------------------------------------------------- 74S196 ------
*  4-Bit Programmable Counter
*
*  The TTL Logic Data Book, 1988, TI Pages 2-655 to 2-662
*  jds    5/20/94
*
.SUBCKT 74S196 CLK1 CLK2 LOADBAR CLRBAR A B C D QA QB QC QD
+  optional: DPWR=$G_DPWR DGND=$G_DGND
+  params: MNTYMXDLY=0 IO_LEVEL=0

U74S196 LOGICEXP (8,9) DPWR DGND
+      A B C D LOADBAR CLRBAR QB_O QC_O
+      s0 s1 s2 s3 r0 r1 r2 r3 j3
+      D0_GATE IO_S MNTYMXDLY={MNTYMXDLY} IO_LEVEL={IO_LEVEL}
+
+    LOGIC:
+      s0 = {~(A & CLRBAR & (~(LOADBAR & CLRBAR)))}
+      r0 = {~(s0 & (~(LOADBAR & CLRBAR)))}
+      s1 = {~(B & CLRBAR & (~(LOADBAR & CLRBAR)))}
+      r1 = {~(s1 & (~(LOADBAR & CLRBAR)))}
+      s2 = {~(C & CLRBAR & (~(LOADBAR & CLRBAR)))}
+      r2 = {~(s2 & (~(LOADBAR & CLRBAR)))}
+      s3 = {~(D & CLRBAR & (~(LOADBAR & CLRBAR)))}
+      r3 = {~(s3 & (~(LOADBAR & CLRBAR)))}
+      j3 = {(QB_O & QC_O)}

uf0  JKff(1)  DPWR DGND
+    s0 r0 CLK1
+    $D_HI $D_HI QA_O qabar
+    D0_EFF IO_S

uf1  JKff(1)  DPWR DGND
+    s1 r1 CLK2
+    qdbar qdbar QB_O qbbar
+    D0_EFF IO_S

uf2  JKff(1)  DPWR DGND
+    s2 r2 QB_O
+    $D_HI $D_HI QC_O qcbar
+    D0_EFF IO_S

uf3  JKff(1)  DPWR DGND
+    s3 r3 CLK2
+    j3 QD_O QD_O qdbar
+    D0_EFF IO_S

Udly PINDLY (4,0,8) DPWR DGND
+    QA_O QB_O QC_O QD_O 
+    CLK1 CLK2 CLRBAR A B C D LOADBAR 
+    QA QB QC QD
+    IO_S MNTYMXDLY={MNTYMXDLY} IO_LEVEL={IO_LEVEL}
+
+    BOOLEAN:
+     CK1= {CHANGED(CLK1,0)}
+     CK2= {CHANGED(CLK2,0)}
+     CLEAR = { CHANGED(CLRBAR,0) }
+     LOAD = { CHANGED(LOADBAR,0) }
+     DATA = { CHANGED(A,0) | CHANGED(B,0) | CHANGED(C,0) | CHANGED(D,0) }
+
+    PINDLY:
+       QA = {
+            CASE(
+                 CLEAR & TRN_HL, DELAY(-1,26ns,37ns),
+                 CK1 & TRN_LH, DELAY(-1,6ns,10ns),
+                 CK1 & TRN_HL, DELAY(-1,5ns,10ns),
+                 DATA & TRN_LH, DELAY(-1,7ns,12ns),
+                 DATA & TRN_HL, DELAY(-1,12ns,18ns),
+                 LOAD & TRN_LH, DELAY(-1,10ns,18ns),
+                 LOAD & TRN_HL, DELAY(-1,12ns,18ns),
+                 DELAY(-1,27ns,38ns)
+                )
+            }
+       QB  = {
+            CASE(
+                 CLEAR & TRN_HL, DELAY(-1,26ns,37ns),
+                 CK2 & TRN_LH, DELAY(-1,5ns,10ns),
+                 CK2 & TRN_HL, DELAY(-1,8ns,12ns),
+                 DATA & TRN_LH, DELAY(-1,7ns,12ns),
+                 DATA & TRN_HL, DELAY(-1,12ns,18ns),
+                 LOAD & TRN_LH, DELAY(-1,10ns,18ns),
+                 LOAD & TRN_HL, DELAY(-1,12ns,18ns),
+                 DELAY(-1,27ns,38ns)
+                )
+            }
+       QC  = {
+            CASE(
+                 CLEAR & TRN_HL, DELAY(-1,26ns,37ns),
+                 CK2 & TRN_LH, DELAY(-1,12ns,18ns),
+                 CK2 & TRN_HL, DELAY(-1,16ns,24ns),
+                 DATA & TRN_LH, DELAY(-1,7ns,12ns),
+                 DATA & TRN_HL, DELAY(-1,12ns,18ns),
+                 LOAD & TRN_LH, DELAY(-1,10ns,18ns),
+                 LOAD & TRN_HL, DELAY(-1,12ns,18ns),
+                 DELAY(-1,27ns,38ns)
+                )
+            }
+       QD  = {
+            CASE(
+                 CLEAR & TRN_HL, DELAY(-1,26ns,37ns),
+                 CK2 & TRN_LH, DELAY(-1,5ns,10ns),
+                 CK2 & TRN_HL, DELAY(-1,8ns,12ns),
+                 DATA & TRN_LH, DELAY(-1,7ns,12ns),
+                 DATA & TRN_HL, DELAY(-1,12ns,18ns),
+                 LOAD & TRN_LH, DELAY(-1,10ns,18ns),