* -------------------------------------------------------------------------
*    Spectrum Software, all rights reserved, copywrite 1994,
*    Micro-Cap V Digital Library
*
*    Parts in this library are modeled at ambient room temperature (TA=25øC)
*    unless otherwise noted.
*
*    DIGITAL LIBRARY range 74167 - 74194
*
*
* ----------------------------------------------------------- 74167 ------
*  Synchronous Decade Rate Multiplier
*
*  The TTL Logic Data Book, 1988, TI Pages 2-537 to 2-542
*  jds    4/21/94
*
.SUBCKT 74167  CLK STROBE ENin UNI_CAS CLR SET B0 B1 B2 B3 Z Y ENout
+  optional: DPWR=$G_DPWR DGND=$G_DGND
+  params: MNTYMXDLY=0 IO_LEVEL=0

U74167 LOGICEXP (17,11) DPWR DGND
+      CLK STROBE ENin UNI_CAS CLR SET B0 B1 B2 B3 
+      qa qb qc qabar qcbar qd qdbar
+      j0 j1 j2 j3 clkbar clr0 clrbar Y_O Z_O ENout_O setbar
+      D0_GATE IO_STD MNTYMXDLY={MNTYMXDLY} IO_LEVEL={IO_LEVEL}
+
+    LOGIC:
+      setbar = {(~SET)}
+      clkbar = {(~CLK)}
+      clrbar = {(~CLR)}
+      enibar = {(~ENin)}
+      strbclk   = { (clkbar & ~STROBE) }
+      rate0 = { (B0 & strbclk & qc & qdbar) }
+      rate1 = { (B1 & strbclk & qabar & qb) }
+      rate2 = { (B2 & strbclk & qa) }
+      rate3 = { (B3 & strbclk & qcbar) }
+      j0 = {(enibar & qcbar)}
+      j1 = {(enibar & qa) }
+      j2 = {((enibar & qa & qb) | (enibar & qc))}
+      j3 = {(enibar & qc)}
+      clr0 =  {(setbar & clrbar)}
+      Z_O = {(~(rate0 | rate1 | rate2 | rate3))} 
+      Y_O = {(~( Z_O & UNI_CAS))}
+      ENout_O = {(~( enibar & qc & qd ))}

uf0  JKff(2)  DPWR DGND
+    $D_HI clr0 clkbar
+    j0 j1 j0 j1
+    qa qb  qabar qbbar
+    D0_EFF IO_STD

uf1  JKff(2)  DPWR DGND
+    setbar clrbar clkbar
+    j2 j3 j2 j3
+    qc qd  qcbar qdbar
+    D0_EFF IO_STD


Udly PINDLY (3,0,10) DPWR DGND
+    Y_O Z_O ENout_O
+    STROBE CLK B0 B1 B2 B3 UNI_CAS CLR SET  ENin
+    Y Z ENout
+    IO_STD MNTYMXDLY={MNTYMXDLY} IO_LEVEL={IO_LEVEL}
+
+    BOOLEAN:
+     RATE = { CHANGED(B0,0) | CHANGED(B1,0) | CHANGED(B2,0) | CHANGED(B3,0) }
+     ENI = { CHANGED(ENin,0) }
+     STRB = {CHANGED(STROBE,0)}
+     SET9 = { CHANGED(SET,0) }
+     CLOCK = {CHANGED(CLK,0)}
+     CLEAR = { CHANGED(CLR,0) }
+     UNI = { CHANGED(UNI_CAS,0) }
+
+    PINDLY:
+       Y = {
+            CASE(
+                 CLEAR, DELAY(-1,24ns,36ns),
+                 RATE , DELAY(-1,15ns,23ns),
+                 CLOCK & TRN_LH, DELAY(-1,26ns,39ns),
+                 CLOCK & TRN_HL, DELAY(-1,20ns,30ns),
+                 STRB & TRN_LH, DELAY(-1,19ns,30ns),
+                 STRB & TRN_HL, DELAY(-1,22ns,33ns),
+                 UNI & TRN_LH, DELAY(-1,9ns,14ns),
+                 UNI & TRN_HL, DELAY(-1,6ns,10ns),
+                 DELAY(-1,24ns,36ns)
+                )
+            }
+       Z = {
+            CASE(
+                 CLEAR, DELAY(-1,15ns,23ns),
+                 RATE & TRN_LH , DELAY(-1,9ns,14ns),
+                 RATE & TRN_HL, DELAY(-1,6ns,10ns),
+                 CLOCK & TRN_LH, DELAY(-1,12ns,18ns),
+                 CLOCK & TRN_HL, DELAY(-1,17ns,26ns),
+                 STRB & TRN_LH, DELAY(-1,12ns,18ns),
+                 STRB & TRN_HL, DELAY(-1,15ns,23ns),
+                 DELAY(-1,24ns,36ns)
+                )
+            }
+       ENout = {
+            CASE(
+                 ENI & TRN_LH, DELAY(-1,13ns,20ns),
+                 ENI & TRN_HL, DELAY(-1,14ns,21ns),
+                 CLOCK & TRN_LH, DELAY(-1,19ns,30ns),
+                 CLOCK & TRN_HL, DELAY(-1,22ns,33ns),
+                 SET9, DELAY(-1,18ns,27ns),
+                 DELAY(-1,23ns,34ns)
+                )
+            }

Ucnstr CONSTRAINT(4) DPWR DGND
+          CLR CLK SET ENin
+          IO_STD
+
+      FREQ:
+         NODE = CLK
+         MAXFREQ = 25MEG
+      WIDTH:
+         NODE = CLK
+         MIN_HI = 20ns
+      WIDTH:
+         NODE = CLR
+         MIN_HI = 15ns
+      WIDTH:
+         NODE = SET
+         MIN_HI = 15ns
+      SETUP_HOLD:
+        CLOCK LH = CLK
+        DATA(1) = ENin
+        SETUPTIME = 25ns
+        HOLDTIME = 20ns

.ENDS 74167
*
*
* ----------------------------------------------------------- 74ALS168B ------
*  Synchronous 4-Bit Up/Down Decade Counter
*
*  The ALS/AS Logic Data Book, 1986, TI Pages 2-172 to 2-180
*  jds    4/21/94
*
.SUBCKT 74ALS168B U/DBAR CLK A B C D ENPBAR LOADBAR ENTBAR QA QB QC QD RCOBAR
+  optional: DPWR=$G_DPWR DGND=$G_DGND
+  params: MNTYMXDLY=0 IO_LEVEL=0

U74ALS168B LOGICEXP (17,10) DPWR DGND
+      U/DBAR A B C D ENPBAR LOADBAR ENTBAR CLK
+      QA_O QB_O QC_O QD_O qabar qbbar qcbar qdbar
+      RCOBAR_O d0 d1 d2 d3 k0 k1 k2 k3 clkbar
+      D0_GATE IO_ALS00 MNTYMXDLY={MNTYMXDLY} IO_LEVEL={IO_LEVEL}
+
+    LOGIC:
+      load = {(~LOADBAR)}
+      ent = {(~ENTBAR)}
+      ubar/d = {(~U/DBAR)}
+      a0 = {(~((U/DBAR & qabar) | (ubar/d & QA_O)))}
+      a1 = {(~((U/DBAR & qbbar) | (ubar/d & QB_O)))}
+      a2 = {(~((U/DBAR & qcbar) | (ubar/d & QC_O)))}
+      a3 = {(~((U/DBAR & qdbar) | (ubar/d & QD_O)))}
+      a4 = {(a0 & a3 & U/DBAR)}
+      a5 = { (a0 & a1 & a2 & a3 & ent & ubar/d) }
+      RCOBAR_O = { (~(a4 | a5))}
+      b0 = {~(qdbar & qcbar & ubar/d)}
+      enable = {( ent & ~ENPBAR & LOADBAR)}
+      d0 = { (((LOADBAR & QA_O) ^ enable) | (A & load))}
+      d1 = {( (B & load) |
+            ((~(U/DBAR & a3)) & enable & a0 & b0 & qbbar) |
+            (LOADBAR & ~(enable & a0) & QB_O)) }
+      d2 = {( (C & load) |
+               (LOADBAR & (~(enable & a0 & a1)) & QC_O) |
+               (enable & a0 & a1 & b0 & (~(LOADBAR & QC_O))) )}
+      d3 = {( (D & load) |
+               (enable & a0 & a1 & a2 & (~(LOADBAR & QD_O))) |
+               (LOADBAR & (~(enable & a0)) & QD_O) )}
+      k0 = { ~d0 }
+      k1 = { ~d1 }
+      k2 = { ~d2 }
+      k3 = { ~d3 }
+      clkbar = {~CLK }

uf0 jkFF(4) DPWR DGND
+ $D_HI $D_HI clkbar d0 d1 d2 d3 k0 k1 k2 k3
+ QA_O QB_O QC_O QD_O qabar qbbar qcbar qdbar
+ D0_EFF IO_ALS00

Udly PINDLY (5,0,3) DPWR DGND
+    RCOBAR_O QA_O QB_O QC_O QD_O
+    ENTBAR U/DBAR CLK
+    RCOBAR QA QB QC QD
+    IO_STD MNTYMXDLY={MNTYMXDLY} IO_LEVEL={IO_LEVEL}
+
+    BOOLEAN:
+     CLOCK = {CHANGED(CLK,0)}
+     UP/DOWN = {CHANGED(U/DBAR,0)}
+     ENAT = {CHANGED(ENTBAR,0)}
+
+    PINDLY:
+       RCOBAR = {
+            CASE(
+                 CLOCK & TRN_LH, DELAY(3ns,-1,20ns),
+                 CLOCK & TRN_HL, DELAY(6ns,-1,20ns),
+                 UP/DOWN, DELAY(5ns,-1,19ns),
+                 ENAT & TRN_LH, DELAY(2ns,-1,13ns),
+                 ENAT & TRN_HL, DELAY(3ns,-1,16ns),
+                 DELAY(7ns,-1,21ns)
+                )
+            }
+       QA QB QC QD = {
+            CASE(
+                 CLOCK & TRN_LH, DELAY(2ns,-1,15ns),
+                 CLOCK & TRN_HL, DELAY(5ns,-1,20ns),
+                 DELAY(7ns,-1,21ns)
+                )
+            }

Ucnstr CONSTRAINT(9) DPWR DGND
+          CLK ENTBAR ENPBAR LOADBAR U/DBAR A B C D
+          IO_ALS00
+
+      FREQ:
+         NODE = CLK
+         MAXFREQ = 40MEG
+      WIDTH:
+         NODE = CLK
+         MIN_HI = 12.5ns
+         MIN_LO = 12.5ns
+      SETUP_HOLD:
+        CLOCK LH = CLK
+        DATA(8) = ENPBAR ENTBAR LOADBAR U/DBAR A B C D
+        SETUPTIME = 15ns

.ENDS 74ALS168B
*
*
* ----------------------------------------------------------- 74AS168 ------
*  Synchronous 4-Bit Up/Down Decade Counter
*
*  The ALS/AS Logic Data Book, 1986, TI Pages 2-172 to 2-180
*  jds    4/21/94
*
.SUBCKT 74AS168 U/DBAR CLK A B C D ENPBAR LOADBAR ENTBAR QA QB QC QD RCOBAR
+  optional: DPWR=$G_DPWR DGND=$G_DGND
+  params: MNTYMXDLY=0 IO_LEVEL=0

U74ALS168B LOGICEXP (17,10) DPWR DGND
+      U/DBAR A B C D ENPBAR LOADBAR ENTBAR CLK
+      QA_O QB_O QC_O QD_O qabar qbbar qcbar qdbar
+      RCOBAR_O d0 d1 d2 d3 k0 k1 k2 k3 clkbar
+      D0_GATE IO_AS00 MNTYMXDLY={MNTYMXDLY} IO_LEVEL={IO_LEVEL}
+
+    LOGIC:
+      load = {(~LOADBAR)}
+      ent = {(~ENTBAR)}
+      ubar/d = {(~U/DBAR)}
+      a0 = {(~((U/DBAR & qabar) | (ubar/d & QA_O)))}
+      a1 = {(~((U/DBAR & qbbar) | (ubar/d & QB_O)))}
+      a2 = {(~((U/DBAR & qcbar) | (ubar/d & QC_O)))}
+      a3 = {(~((U/DBAR & qdbar) | (ubar/d & QD_O)))}
+      a4 = {(a0 & a3 & U/DBAR)}
+      a5 = { (a0 & a1 & a2 & a3 & ent & ubar/d) }
+      RCOBAR_O = { (~(a4 | a5))}
+      b0 = {~(qdbar & qcbar & ubar/d)}
+      enable = {( ent & ~ENPBAR & LOADBAR)}
+      d0 = { (((LOADBAR & QA_O) ^ enable) | (A & load))}
+      d1 = {( (B & load) |
+            ((~(U/DBAR & a3)) & enable & a0 & b0 & qbbar) |
+            (LOADBAR & ~(enable & a0) & QB_O)) }
+      d2 = {( (C & load) |
+               (LOADBAR & (~(enable & a0 & a1)) & QC_O) |
+               (enable & a0 & a1 & b0 & (~(LOADBAR & QC_O))) )}
+      d3 = {( (D & load) |
+               (enable & a0 & a1 & a2 & (~(LOADBAR & QD_O))) |
+               (LOADBAR & (~(enable & a0)) & QD_O) )}
+      k0 = { ~d0 }
+      k1 = { ~d1 }
+      k2 = { ~d2 }
+      k3 = { ~d3 }
+      clkbar = {~CLK }

uf0 jkFF(4) DPWR DGND
+ $D_HI $D_HI clkbar d0 d1 d2 d3 k0 k1 k2 k3
+ QA_O QB_O QC_O QD_O qabar qbbar qcbar qdbar
+ D0_EFF IO_AS00

Udly PINDLY (5,0,3) DPWR DGND
+    RCOBAR_O QA_O QB_O QC_O QD_O
+    ENTBAR U/DBAR CLK
+    RCOBAR QA QB QC QD
+    IO_AS00 MNTYMXDLY={MNTYMXDLY} IO_LEVEL={IO_LEVEL}
+
+    BOOLEAN:
+     CLOCK = {CHANGED(CLK,0)}
+     UP/DOWN = {CHANGED(U/DBAR,0)}
+     ENAT = {CHANGED(ENTBAR,0)}
+
+    PINDLY:
+       RCOBAR = {
+            CASE(
+                 CLOCK & TRN_LH, DELAY(3ns,-1,16.5ns),
+                 CLOCK & TRN_HL, DELAY(2ns,-1,13ns),
+                 UP/DOWN & TRN_LH, DELAY(2ns,-1,12ns),
+                 UP/DOWN & TRN_HL, DELAY(2ns,-1,13ns),
+                 ENAT, DELAY(1.5ns,-1,9ns),
+                 DELAY(4ns,-1,17.5ns)
+                )
+            }
+       QA QB QC QD = {
+            CASE(
+                 CLOCK & TRN_LH, DELAY(1ns,-1,7ns),
+                 CLOCK & TRN_HL, DELAY(2ns,-1,13ns),
+                 DELAY(3ns,-1,14ns)
+                )
+            }

Ucnstr CONSTRAINT(9) DPWR DGND
+          CLK ENTBAR ENPBAR LOADBAR U/DBAR A B C D
+          IO_AS00
+
+      FREQ:
+         NODE = CLK
+         MAXFREQ = 75MEG
+      WIDTH:
+         NODE = CLK
+         MIN_HI = 6.7ns
+         MIN_LO = 6.7ns
+      SETUP_HOLD:
+        CLOCK LH = CLK
+        DATA(8) = ENPBAR ENTBAR LOADBAR U/DBAR A B C D
+        SETUPTIME = 8ns

.ENDS 74AS168

*-----------------------------------------------------------74AS168A------

* Synchronous Four Bit Up/Down Counter
* National ALS/AS Logic Databook, 1990, pages 3-50 to 3-54
* jat 8/21/96

.SUBCKT 74AS168A LOADBAR A B C D U/DBAR CLK ENPBAR ENTBAR RCOBAR QA QB QC QD
+ OPTIONAL: DPWR=$G_DPWR DGND=$G_DGND
+ PARAMS: MNTYMXDLY=0 IO_LEVEL=0

U1 LOGICEXP(16,5) DPWR DGND
+ LOADBAR A B C D ENTBAR ENPBAR U/DBAR Q0O Q1O Q2O Q3O Q0BAR Q1BAR Q2BAR Q3BAR
+ D0 D1 D2 D3 RCOBARO
+ D0_GATE IO_AS00 MNTYMXDLY={MNTYMXDLY} IO_LEVEL={IO_LEVEL}
+ LOGIC:
+  CE = {~(ENTBAR | ENPBAR)}
+  X1 = {~(Q0BAR & CE)}
+  X2 = {~(Q2BAR & Q3BAR)}
+  X3 = {~(Q0O & CE)}
+  X4 = {~(Q1O & Q0O & CE)}
+  X5 = {~(Q1BAR & Q0BAR & CE)}
+  X6 = {~(Q0BAR & CE)}
+  X7 = {~(Q0O & CE)}
+  D0 = {(LOADBAR & ~CE & Q0O) | (A & ~LOADBAR) | (CE & LOADBAR & Q0BAR)}
+  D1 = {(X1 & LOADBAR & Q1O & ~U/DBAR) | (Q1BAR & X2 & ~U/DBAR & LOADBAR & Q0BAR & CE)
+      | (B & ~LOADBAR) | (Q1O & X3 & LOADBAR & U/DBAR) |
+        (Q1BAR & LOADBAR & U/DBAR & CE & Q0O & Q3BAR)}
+  D2 = {(X4 & LOADBAR & U/DBAR & Q2O) | (U/DBAR & LOADBAR & Q2BAR & Q1O & Q0O & CE) |
+        (C & ~LOADBAR) | (Q2O & X5 & LOADBAR & ~U/DBAR) |
+        (Q2BAR & ~U/DBAR & CE & LOADBAR & Q1BAR & Q0BAR & Q3O)}
+  D3 = {(X6 & LOADBAR & ~U/DBAR & Q3O) | (~U/DBAR & LOADBAR & Q3BAR & Q2BAR & Q1BAR & Q0BAR & CE) |
+        (D & ~LOADBAR) | (Q3O & X7 & LOADBAR & U/DBAR) |
+        (Q3BAR & U/DBAR & CE & LOADBAR & Q0O & Q1O & Q2O)}
+  RCOBARO = {~((~U/DBAR & ~ENTBAR & Q0BAR & Q1BAR & Q2BAR & Q3BAR) |
+               (U/DBAR & ~ENTBAR & Q0O & Q3O))}

U2 DFF(4) DPWR DGND
+ $D_HI $D_HI CLK
+ D0 D1 D2 D3
+ Q0O Q1O Q2O Q3O
+ Q0BAR Q1BAR Q2BAR Q3BAR
+ D0_EFF IO_AS00 MNTYMXDLY={MNTYMXDLY} IO_LEVEL={IO_LEVEL}

U3 PINDLY(5,0,3) DPWR DGND
+ Q0O Q1O Q2O Q3O RCOBARO
+ CLK ENTBAR U/DBAR
+ QA QB QC QD RCOBAR
+ IO_AS00 MNTYMXDLY={MNTYMXDLY} IO_LEVEL={IO_LEVEL}
+ BOOLEAN:
+  EDGE = {CHANGED_LH(CLK,0)}
+  T = {CHANGED(ENTBAR,0)}
+  UPDOWN = {CHANGED(U/DBAR,0)}
+ PINDLY:
+  QA QB QC QD = {
+    CASE(
+      EDGE & TRN_LH, DELAY(1NS,-1,7NS),
+      EDGE & TRN_HL, DELAY(2NS,-1,13NS),
+      DELAY(3NS,-1,14NS))}
+  RCOBAR = {
+    CASE(
+      T & TRN_LH, DELAY(1.5NS,-1,9NS),
+      T & TRN_HL, DELAY(1.5NS,-1,9NS),
+      UPDOWN & TRN_LH, DELAY(2NS,-1,12NS),
+      UPDOWN & TRN_HL, DELAY(2NS,-1,13NS),
+      EDGE & TRN_LH, DELAY(3NS,-1,16.5NS),
+      EDGE & TRN_HL, DELAY(2NS,-1,13NS),
+      DELAY(3NS,-1,17.5NS))}

U4 CONSTRAINT(9) DPWR DGND
+ CLK A B C D ENPBAR ENTBAR LOADBAR U/DBAR
+ IO_AS00 IO_LEVEL={IO_LEVEL}
+ FREQ:
+  NODE = CLK
+  MAXFREQ = 75MEG
+ WIDTH:
+  NODE  = CLK
+  MIN_LO = 6.7NS
+  MIN_HI = 6.7NS
+ SETUP_HOLD:
+  CLOCK LH = CLK
+  DATA(7) = A B C D ENPBAR ENTBAR LOADBAR
+  SETUPTIME = 8NS
+ SETUP_HOLD:
+  CLOCK LH = CLK
+  DATA(1) = U/DBAR
+  SETUPTIME = 11NS

.ENDS 74AS168A

* ----------------------------------------------------------- 74F168 ------
*  Synchronous 4-Bit Up/Down Decade Counter
*
*  The F Logic Logic Data Book, 1994, TI Pages 2-121 to 2-128
*  jds    4/25/94
*
.SUBCKT 74F168 U/DBAR CLK A B C D ENPBAR LOADBAR ENTBAR QA QB QC QD RCOBAR
+  optional: DPWR=$G_DPWR DGND=$G_DGND
+  params: MNTYMXDLY=0 IO_LEVEL=0

U74F168 LOGICEXP (17,10) DPWR DGND
+      U/DBAR A B C D ENPBAR LOADBAR ENTBAR CLK
+      QA_O QB_O QC_O QD_O qabar qbbar qcbar qdbar
+      RCOBAR_O d0 d1 d2 d3 k0 k1 k2 k3 clkbar
+      D0_GATE IO_F MNTYMXDLY={MNTYMXDLY} IO_LEVEL={IO_LEVEL}
+
+    LOGIC:
+      load = {(~LOADBAR)}
+      ent = {(~ENTBAR)}
+      ubar/d = {(~U/DBAR)}
+      a0 = {(~((U/DBAR & qabar) | (ubar/d & QA_O)))}
+      a1 = {(~((U/DBAR & qbbar) | (ubar/d & QB_O)))}
+      a2 = {(~((U/DBAR & qcbar) | (ubar/d & QC_O)))}
+      a3 = {(~((U/DBAR & qdbar) | (ubar/d & QD_O)))}
+      a4 = {(a0 & a3 & U/DBAR)}
+      a5 = { (a0 & a1 & a2 & a3 & ent & ubar/d) }
+      RCOBAR_O = { (~(a4 | a5))}
+      b0 = {~(qdbar & qcbar & ubar/d)}
+      enable = {( ent & ~ENPBAR & LOADBAR)}
+      d0 = { (((LOADBAR & QA_O) ^ enable) | (A & load))}
+      d1 = {( (B & load) |
+            ((~(U/DBAR & a3)) & enable & a0 & b0 & qbbar) |
+            (LOADBAR & ~(enable & a0) & QB_O)) }
+      d2 = {( (C & load) |
+               (LOADBAR & (~(enable & a0 & a1)) & QC_O) |
+               (enable & a0 & a1 & b0 & (~(LOADBAR & QC_O))) )}
+      d3 = {( (D & load) |
+               (enable & a0 & a1 & a2 & (~(LOADBAR & QD_O))) |
+               (LOADBAR & (~(enable & a0)) & QD_O) )}
+      k0 = { ~d0 }
+      k1 = { ~d1 }
+      k2 = { ~d2 }
+      k3 = { ~d3 }
+      clkbar = {~CLK }

uf0 jkFF(4) DPWR DGND
+ $D_HI $D_HI clkbar d0 d1 d2 d3 k0 k1 k2 k3
+ QA_O QB_O QC_O QD_O qabar qbbar qcbar qdbar
+ D0_EFF IO_F

Udly PINDLY (5,0,3) DPWR DGND
+    RCOBAR_O QA_O QB_O QC_O QD_O
+    ENTBAR U/DBAR CLK
+    RCOBAR QA QB QC QD
+    IO_F MNTYMXDLY={MNTYMXDLY} IO_LEVEL={IO_LEVEL}
+
+    BOOLEAN:
+     CLOCK = {CHANGED(CLK,0)}
+     UP/DOWN = {CHANGED(U/DBAR,0)}
+     ENAT = {CHANGED(ENTBAR,0)}
+
+    PINDLY:
+       RCOBAR = {
+            CASE(
+                 CLOCK & TRN_LH, DELAY(4.7ns,11.6ns,15.5ns),
+                 CLOCK & TRN_HL, DELAY(3.2ns,8.1ns,11ns),
+                 UP/DOWN, DELAY(2.7ns,8.1ns,11ns),
+                 UP/DOWN, DELAY(3.2ns,12.1ns,16ns),
+                 ENAT & TRN_LH, DELAY(1.7ns,4.1ns,6ns),
+                 ENAT & TRN_HL, DELAY(1.7ns,5.6ns,8ns),
+                 DELAY(5.7ns,13.1ns,17ns)
+                )
+            }
+       QA QB QC QD = {
+            CASE(
+                 CLOCK & TRN_LH, DELAY(2.2ns,6.1ns,8.5ns),
+                 CLOCK & TRN_HL, DELAY(3.2ns,8.6ns,11.5ns),
+                 DELAY(4.2ns,9.6ns,12.5ns)
+                )
+            }

Ucnstr CONSTRAINT(9) DPWR DGND
+          CLK ENTBAR ENPBAR LOADBAR U/DBAR A B C D
+          IO_F
+
+      FREQ:
+         NODE = CLK
+         MAXFREQ = 115MEG
+      WIDTH:
+         NODE = CLK
+         MIN_HI = 5ns
+         MIN_LO = 5ns
+      SETUP_HOLD:
+        CLOCK LH = CLK
+        DATA(4) =  A B C D
+        SETUPTIME = 4ns
+        HOLDTIME = 3ns
+        WHEN = { LOADBAR != '1 }
+      SETUP_HOLD:
+        CLOCK LH = CLK
+        DATA(2) =  ENTBAR ENPBAR
+        SETUPTIME = 5ns
+      SETUP_HOLD:
+        CLOCK LH = CLK
+        DATA(1) =  LOADBAR
+        SETUPTIME = 8ns
+      SETUP_HOLD:
+        CLOCK LH = CLK
+        DATA(1) =  U/DBAR
+        SETUPTIME_HI = 11ns
+        SETUPTIME_LO = 16.5ns

.ENDS 74F168

*-----------------------------------------------------------74LS168------

* BCD Decade Synchronous Bi-directional Counter
* Motorola FAST and LS TTL Logic Data, 1992, pages 5-178 to 5-183
* jat 8/7/96

.SUBCKT 74LS168 PEBAR P0 P1 P2 P3 CEPBAR CETBAR U/DBAR CP Q0 Q1 Q2 Q3 TCBAR
+ OPTIONAL:  DPWR=$G_DPWR DGND=$G_DGND
+ PARAMS: MNTYMXDLY=0 IO_LEVEL=0

U1 LOGICEXP(17,5) DPWR DGND
+ PEBAR P0 P1 P2 P3 CETBAR CEPBAR U/DBAR CP Q0O Q1O Q2O Q3O Q0BAR Q1BAR Q2BAR Q3BAR
+ D0 D1 D2 D3 TCBARO
+ D0_GATE IO_LS MNTYMXDLY={MNTYMXDLY} IO_LEVEL={IO_LEVEL}
+ LOGIC:
+  CE = {~(CETBAR | CEPBAR)}
+  X1 = {~(Q0BAR & CE)}
+  X2 = {~(Q2BAR & Q3BAR)}
+  X3 = {~(Q0O & CE)}
+  X4 = {~(Q1O & Q0O & CE)}
+  X5 = {~(Q1BAR & Q0BAR & CE)}
+  X6 = {~(Q0BAR & CE)}
+  X7 = {~(Q0O & CE)}
+  D0 = {(PEBAR & ~CE & Q0O) | (P0 & ~PEBAR) | (CE & PEBAR & Q0BAR)}
+  D1 = {(X1 & PEBAR & Q1O & ~U/DBAR) | (Q1BAR & X2 & ~U/DBAR & PEBAR & Q0BAR & CE)
+      | (P1 & ~PEBAR) | (Q1O & X3 & PEBAR & U/DBAR) |
+        (Q1BAR & PEBAR & U/DBAR & CE & Q0O & Q3BAR)}
+  D2 = {(X4 & PEBAR & U/DBAR & Q2O) | (U/DBAR & PEBAR & Q2BAR & Q1O & Q0O & CE) |
+        (P2 & ~PEBAR) | (Q2O & X5 & PEBAR & ~U/DBAR) |
+        (Q2BAR & ~U/DBAR & CE & PEBAR & Q1BAR & Q0BAR & Q3O)}
+  D3 = {(X6 & PEBAR & ~U/DBAR & Q3O) | (~U/DBAR & PEBAR & Q3BAR & Q2BAR & Q1BAR & Q0BAR & CE) |
+        (P3 & ~PEBAR) | (Q3O & X7 & PEBAR & U/DBAR) |
+        (Q3BAR & U/DBAR & CE & PEBAR & Q0O & Q1O & Q2O)}
+  TCBARO = {~((~U/DBAR & ~CETBAR & Q0BAR & Q1BAR & Q2BAR & Q3BAR) |
+               (U/DBAR & ~CETBAR & Q0O & Q3O))}

U2 DFF(4) DPWR DGND
+ $D_HI $D_HI CP
+ D0 D1 D2 D3
+ Q0O Q1O Q2O Q3O
+ Q0BAR Q1BAR Q2BAR Q3BAR
+ D0_EFF IO_LS MNTYMXDLY={MNTYMXDLY} IO_LEVEL={IO_LEVEL}

U3 PINDLY(5,0,3) DPWR DGND
+ Q0O Q1O Q2O Q3O TCBARO
+ CP CETBAR U/DBAR
+ Q0 Q1 Q2 Q3 TCBAR
+ IO_LS MNTYMXDLY={MNTYMXDLY} IO_LEVEL={IO_LEVEL}
+ BOOLEAN:
+  EDGE = {CHANGED_LH(CP,0)}
+  T = {CHANGED(CETBAR,0)}
+  UPDOWN = {CHANGED(U/DBAR,0)}
+ PINDLY:
+  Q0 Q1 Q2 Q3 = {
+    CASE(
+      EDGE & TRN_LH, DELAY(-1,13NS,20NS),
+      EDGE & TRN_HL, DELAY(-1,15NS,23NS),
+      DELAY(-1,16NS,24NS))}
+  TCBAR = {
+    CASE(
+      T & TRN_LH, DELAY(-1,15NS,20NS),
+      T & TRN_HL, DELAY(-1,15NS,20NS),
+      UPDOWN & TRN_LH, DELAY(-1,17NS,25NS),
+      UPDOWN & TRN_HL, DELAY(-1,19NS,29NS),
+      EDGE & (TRN_LH | TRN_HL), DELAY(-1,23NS,35NS),
+      DELAY(-1,24NS,36NS))}

U4 CONSTRAINT(9) DPWR DGND
+ CP P0 P1 P2 P3 CETBAR CEPBAR U/DBAR PEBAR
+ IO_LS IO_LEVEL={IO_LEVEL}
+ FREQ:
+  NODE = CP
+  MAXFREQ = 32MEG
+ WIDTH:
+  NODE  = CP
+  MIN_LO = 25NS
+  MIN_HI = 25NS
+ SETUP_HOLD:
+  CLOCK LH = CP
+  DATA(6) = P0 P1 P2 P3 CETBAR CEPBAR
+  SETUPTIME = 20NS
+ SETUP_HOLD:
+  CLOCK LH = CP
+  DATA(1) = PEBAR
+  SETUPTIME = 25NS
+ SETUP_HOLD:
+  CLOCK LH = CP
+  DATA(1) = U/DBAR
+  SETUPTIME = 30NS

.ENDS 74LS168

*-----------------------------------------------------------74LS168A------

* BCD Decade Synchronous Bi-directional Counter
* Motorola Schottky TTL Data, 1983, pages 4-148 to 4-152
* jat 8/7/96

.SUBCKT 74LS168A PEBAR P0 P1 P2 P3 CEPBAR CETBAR U/DBAR CP Q0 Q1 Q2 Q3 TCBAR
+ OPTIONAL:  DPWR=$G_DPWR DGND=$G_DGND
+ PARAMS: MNTYMXDLY=0 IO_LEVEL=0

U1 LOGICEXP(17,5) DPWR DGND
+ PEBAR P0 P1 P2 P3 CETBAR CEPBAR U/DBAR CP Q0O Q1O Q2O Q3O Q0BAR Q1BAR Q2BAR Q3BAR
+ D0 D1 D2 D3 TCBARO
+ D0_GATE IO_LS MNTYMXDLY={MNTYMXDLY} IO_LEVEL={IO_LEVEL}
+ LOGIC:
+  CE = {~(CETBAR | CEPBAR)}
+  X1 = {~(Q0BAR & CE)}
+  X2 = {~(Q2BAR & Q3BAR)}
+  X3 = {~(Q0O & CE)}
+  X4 = {~(Q1O & Q0O & CE)}
+  X5 = {~(Q1BAR & Q0BAR & CE)}
+  X6 = {~(Q0BAR & CE)}
+  X7 = {~(Q0O & CE)}
+  D0 = {(PEBAR & ~CE & Q0O) | (P0 & ~PEBAR) | (CE & PEBAR & Q0BAR)}
+  D1 = {(X1 & PEBAR & Q1O & ~U/DBAR) | (Q1BAR & X2 & ~U/DBAR & PEBAR & Q0BAR & CE)
+      | (P1 & ~PEBAR) | (Q1O & X3 & PEBAR & U/DBAR) |
+        (Q1BAR & PEBAR & U/DBAR & CE & Q0O & Q3BAR)}
+  D2 = {(X4 & PEBAR & U/DBAR & Q2O) | (U/DBAR & PEBAR & Q2BAR & Q1O & Q0O & CE) |
+        (P2 & ~PEBAR) | (Q2O & X5 & PEBAR & ~U/DBAR) |
+        (Q2BAR & ~U/DBAR & CE & PEBAR & Q1BAR & Q0BAR & Q3O)}
+  D3 = {(X6 & PEBAR & ~U/DBAR & Q3O) | (~U/DBAR & PEBAR & Q3BAR & Q2BAR & Q1BAR & Q0BAR & CE) |
+        (P3 & ~PEBAR) | (Q3O & X7 & PEBAR & U/DBAR) |
+        (Q3BAR & U/DBAR & CE & PEBAR & Q0O & Q1O & Q2O)}
+  TCBARO = {~((~U/DBAR & ~CETBAR & Q0BAR & Q1BAR & Q2BAR & Q3BAR) |
+               (U/DBAR & ~CETBAR & Q0O & Q3O))}

U2 DFF(4) DPWR DGND
+ $D_HI $D_HI CP
+ D0 D1 D2 D3
+ Q0O Q1O Q2O Q3O
+ Q0BAR Q1BAR Q2BAR Q3BAR
+ D0_EFF IO_LS MNTYMXDLY={MNTYMXDLY} IO_LEVEL={IO_LEVEL}

U3 PINDLY(5,0,3) DPWR DGND
+ Q0O Q1O Q2O Q3O TCBARO
+ CP CETBAR U/DBAR
+ Q0 Q1 Q2 Q3 TCBAR
+ IO_LS MNTYMXDLY={MNTYMXDLY} IO_LEVEL={IO_LEVEL}
+ BOOLEAN:
+  EDGE = {CHANGED_LH(CP,0)}
+  T = {CHANGED(CETBAR,0)}
+  UPDOWN = {CHANGED(U/DBAR,0)}
+ PINDLY:
+  Q0 Q1 Q2 Q3 = {
+    CASE(
+      EDGE & TRN_LH, DELAY(-1,13NS,20NS),
+      EDGE & TRN_HL, DELAY(-1,15NS,23NS),
+      DELAY(-1,16NS,24NS))}
+  TCBAR = {
+    CASE(
+      T & TRN_LH, DELAY(-1,15NS,20NS),
+      T & TRN_HL, DELAY(-1,15NS,20NS),
+      UPDOWN & TRN_LH, DELAY(-1,17NS,25NS),
+      UPDOWN & TRN_HL, DELAY(-1,19NS,29NS),
+      EDGE & (TRN_LH | TRN_HL), DELAY(-1,23NS,35NS),
+      DELAY(-1,24NS,36NS))}

U4 CONSTRAINT(9) DPWR DGND
+ CP P0 P1 P2 P3 CETBAR CEPBAR U/DBAR PEBAR
+ IO_LS IO_LEVEL={IO_LEVEL}
+ FREQ:
+  NODE = CP
+  MAXFREQ = 32MEG
+ WIDTH:
+  NODE  = CP
+  MIN_LO = 25NS
+  MIN_HI = 25NS
+ SETUP_HOLD:
+  CLOCK LH = CP
+  DATA(6) = P0 P1 P2 P3 CETBAR CEPBAR
+  SETUPTIME = 20NS
+ SETUP_HOLD:
+  CLOCK LH = CP
+  DATA(1) = PEBAR
+  SETUPTIME = 25NS
+ SETUP_HOLD:
+  CLOCK LH = CP
+  DATA(1) = U/DBAR
+  SETUPTIME = 30NS

.ENDS 74LS168A

* ----------------------------------------------------------- 74S168 ------
*  Synchronous 4-Bit Up/Down Decade Counter
*
*  The TTL Logic Data Book, 198, TI Pages 3-651 to 3-654
*  jds    4/25/94
*
.SUBCKT 74S168 U/DBAR CLK A B C D ENPBAR LOADBAR ENTBAR QA QB QC QD RCOBAR
+  optional: DPWR=$G_DPWR DGND=$G_DGND
+  params: MNTYMXDLY=0 IO_LEVEL=0

U74S168 LOGICEXP (17,10) DPWR DGND
+      U/DBAR A B C D ENPBAR LOADBAR ENTBAR CLK
+      QA_O QB_O QC_O QD_O qabar qbbar qcbar qdbar
+      RCOBAR_O d0 d1 d2 d3 k0 k1 k2 k3 clkbar
+      D0_GATE IO_S MNTYMXDLY={MNTYMXDLY} IO_LEVEL={IO_LEVEL}
+
+    LOGIC:
+      load = {(~LOADBAR)}
+      ent = {(~ENTBAR)}
+      ubar/d = {(~U/DBAR)}
+      a0 = {(~((U/DBAR & qabar) | (ubar/d & QA_O)))}
+      a1 = {(~((U/DBAR & qbbar) | (ubar/d & QB_O)))}
+      a2 = {(~((U/DBAR & qcbar) | (ubar/d & QC_O)))}
+      a3 = {(~((U/DBAR & qdbar) | (ubar/d & QD_O)))}
+      a4 = {(a0 & a3 & U/DBAR)}
+      a5 = { (a0 & a1 & a2 & a3 & ent & ubar/d) }
+      RCOBAR_O = { (~(a4 | a5))}
+      b0 = {~(qdbar & qcbar & ubar/d)}
+      enable = {( ent & ~ENPBAR & LOADBAR)}
+      d0 = { (((LOADBAR & QA_O) ^ enable) | (A & load))}
+      d1 = {( (B & load) |
+            ((~(U/DBAR & a3)) & enable & a0 & b0 & qbbar) |
+            (LOADBAR & ~(enable & a0) & QB_O)) }
+      d2 = {( (C & load) |
+               (LOADBAR & (~(enable & a0 & a1)) & QC_O) |
+               (enable & a0 & a1 & b0 & (~(LOADBAR & QC_O))) )}
+      d3 = {( (D & load) |
+               (enable & a0 & a1 & a2 & (~(LOADBAR & QD_O))) |
+               (LOADBAR & (~(enable & a0)) & QD_O) )}
+      k0 = { ~d0 }
+      k1 = { ~d1 }
+      k2 = { ~d2 }
+      k3 = { ~d3 }
+      clkbar = {~CLK }

uf0 jkFF(4) DPWR DGND
+ $D_HI $D_HI clkbar d0 d1 d2 d3 k0 k1 k2 k3
+ QA_O QB_O QC_O QD_O qabar qbbar qcbar qdbar
+ D0_EFF IO_S

Udly PINDLY (5,0,3) DPWR DGND
+    RCOBAR_O QA_O QB_O QC_O QD_O
+    ENTBAR U/DBAR CLK
+    RCOBAR QA QB QC QD
+    IO_S MNTYMXDLY={MNTYMXDLY} IO_LEVEL={IO_LEVEL}
+
+    BOOLEAN:
+     CLOCK = {CHANGED(CLK,0)}
+     UP/DOWN = {CHANGED(U/DBAR,0)}
+     COUNTING_UP = {  U/DBAR == '1 }
+     ENAT = {CHANGED(ENTBAR,0)}
+
+    PINDLY:
+       RCOBAR = {
+            CASE(
+                 CLOCK & TRN_LH, DELAY(-1,14ns,21ns),
+                 CLOCK & TRN_HL, DELAY(-1,20ns,28ns),
+                 UP/DOWN & COUNTING_UP & TRN_LH, DELAY(-1,9ns,15ns),
+                 UP/DOWN & COUNTING_UP & TRN_HL, DELAY(-1,10ns,15ns),
+                 ENAT & COUNTING_UP & TRN_LH, DELAY(-1,7.5ns,11ns),
+                 ENAT & COUNTING_UP & TRN_LH, DELAY(-1,15ns,22ns),
+                 UP/DOWN & TRN_LH, DELAY(-1,8ns,15ns),
+                 UP/DOWN & TRN_HL, DELAY(-1,16ns,22ns),
+                 ENAT & TRN_LH, DELAY(-1,6ns,12ns),
+                 ENAT & TRN_LH, DELAY(-1,15ns,25ns),
+                 DELAY(-1,21ns,29ns)
+                )
+            }
+       QA QB QC QD = {
+            CASE(
+                 CLOCK & TRN_LH, DELAY(-1,8ns,15ns),
+                 CLOCK & TRN_HL, DELAY(-1,11ns,15ns),
+                 DELAY(-1,12ns,16ns)
+                )
+            }

Ucnstr CONSTRAINT(9) DPWR DGND
+          CLK ENTBAR ENPBAR LOADBAR U/DBAR A B C D
+          IO_S
+
+      FREQ:
+         NODE = CLK
+         MAXFREQ = 40MEG
+      WIDTH:
+         NODE = CLK
+         MIN_HI = 10ns
+         MIN_LO = 10ns
+      SETUP_HOLD:
+        CLOCK LH = CLK
+        DATA(4) =  A B C D
+        SETUPTIME = 4ns
+        HOLDTIME = 1ns
+        WHEN = { LOADBAR != '1 }
+      SETUP_HOLD:
+        CLOCK LH = CLK
+        DATA(2) =  ENTBAR ENPBAR
+        SETUPTIME = 14ns
+        HOLDTIME = 1ns
+      SETUP_HOLD:
+        CLOCK LH = CLK
+        DATA(1) =  LOADBAR
+        SETUPTIME = 6ns
+        HOLDTIME = 1ns
+      SETUP_HOLD:
+        CLOCK LH = CLK
+        DATA(1) =  U/DBAR
+        SETUPTIME = 20ns
+        HOLDTIME = 1ns

.ENDS 74S168
*
*
* ----------------------------------------------------------- 74AC169 ------
*  Synchronous 4-Bit Up/Down Binary Counter
*
*  The FACT Advanced CMOS Logic Data Book, 1989,  National Semiconductor
*  jds    4/26/94                                 Pages 4-100 to 4-104
*
.SUBCKT 74AC169 U/DBAR CP P0 P1 P2 P3 CEPBAR PEBAR CETBAR Q0 Q1 Q2 Q3 TCBAR
+  optional: DPWR=$G_DPWR DGND=$G_DGND
+  params: MNTYMXDLY=0 IO_LEVEL=0

U74AC169 LOGICEXP (17,10) DPWR DGND
+      U/DBAR P0 P1 P2 P3 CEPBAR PEBAR CETBAR CP
+      Q0_O Q1_O Q2_O Q3_O q0bar q1bar q2bar q3bar
+      TCBAR_O d0 d1 d2 d3 k0 k1 k2 k3 clkbar
+      D0_GATE IO_AC MNTYMXDLY={MNTYMXDLY} IO_LEVEL={IO_LEVEL}
+
+    LOGIC:
+      load = {(~PEBAR)}
+      ent = {(~CETBAR)}
+      ubar/d = {(~U/DBAR)}
+      a0 = {(~((U/DBAR & q0bar) | (ubar/d & Q0_O)))}
+      a1 = {(~((U/DBAR & q1bar) | (ubar/d & Q1_O)))}
+      a2 = {(~((U/DBAR & q2bar) | (ubar/d & Q2_O)))}
+      a3 = {(~((U/DBAR & q3bar) | (ubar/d & Q3_O)))}
+      a4 = { (a0 & a1 & a2 & a3 & ent & U/DBAR) }
+      a5 = { (a0 & a1 & a2 & a3 & ent & ubar/d) }
+      TCBAR_O = { (~(a4 | a5))}
+      b0 = {~(q3bar & q2bar & ubar/d)}
+      enable = {( ent & ~CEPBAR & PEBAR)}
+      d0 = { (((PEBAR & Q0_O) ^ enable) | (P0 & load))}
+      d1 = { (((PEBAR & Q1_O) ^ (enable & a0)) | (P1 & load))}
+      d2 = { (((PEBAR & Q2_O) ^ (enable & a0 & a1)) | (P2 & load))}
+      d3 = { (((PEBAR & Q3_O) ^ (enable & a0 & a1 & a2)) | (P3 & load))}
+      k0 = { ~d0 }
+      k1 = { ~d1 }
+      k2 = { ~d2 }
+      k3 = { ~d3 }
+      clkbar = {~CP }

uf0 jkFF(4) DPWR DGND
+ $D_HI $D_HI clkbar d0 d1 d2 d3 k0 k1 k2 k3
+ Q0_O Q1_O Q2_O Q3_O q0bar q1bar q2bar q3bar
+ D0_EFF IO_AC

Udly PINDLY (5,0,3) DPWR DGND
+    TCBAR_O Q0_O Q1_O Q2_O Q3_O
+    CETBAR U/DBAR CP
+    TCBAR Q0 Q1 Q2 Q3
+    IO_AC MNTYMXDLY={MNTYMXDLY} IO_LEVEL={IO_LEVEL}
+
+    BOOLEAN:
+     CLOCK = {CHANGED(CP,0)}
+     UP/DOWN = {CHANGED(U/DBAR,0)}
+     ENAT = {CHANGED(CETBAR,0)}
+
+    PINDLY:
+       TCBAR = {
+            CASE(
+                 CLOCK & TRN_LH, DELAY(3ns,9.5ns,13ns),
+                 CLOCK & TRN_HL, DELAY(2.5ns,9.5ns,13ns),
+                 UP/DOWN & TRN_LH, DELAY(2.5ns,8ns,10.5ns),
+                 UP/DOWN & TRN_HL, DELAY(1.5ns,7ns,9.5ns),
+                 ENAT & TRN_LH, DELAY(3ns,8ns,10.5ns),
+                 ENAT & TRN_HL, DELAY(2ns,7ns,9ns),
+                 DELAY(4ns,10.5ns,14ns)
+                )
+            }
+       Q0 Q1 Q2 Q3 = {
+            CASE(
+                 CLOCK & TRN_LH, DELAY(1.5ns,7ns,10ns),
+                 CLOCK & TRN_HL, DELAY(1.5ns,7.5ns,11ns),
+                 DELAY(2.5ns,8.5ns,12ns)
+                )
+            }

Ucnstr CONSTRAINT(9) DPWR DGND
+          CP CETBAR CEPBAR PEBAR U/DBAR P0 P1 P2 P3
+          IO_AC
+
+      FREQ:
+         NODE = CP
+         MAXFREQ = 154MEG
+      WIDTH:
+         NODE = CP
+         MIN_HI = 2ns
+         MIN_LO = 2ns
+      SETUP_HOLD:
+        CLOCK LH = CP
+        DATA(4) =  P0 P1 P2 P3
+        SETUPTIME = 1.5ns
+        HOLDTIME = 0.5ns
+        WHEN = { PEBAR != '1 }
+      SETUP_HOLD:
+        CLOCK LH = CP
+        DATA(1) =  CETBAR
+        SETUPTIME = 4ns
+        HOLDTIME = 4ns
+      SETUP_HOLD:
+        CLOCK LH = CP
+        DATA(1) =  CEPBAR
+        SETUPTIME = 4.5ns
+        HOLDTIME = 2ns
+      SETUP_HOLD:
+        CLOCK LH = CP
+        DATA(1) =  PEBAR
+        SETUPTIME = 2ns
+        HOLDTIME = 1.5ns
+      SETUP_HOLD:
+        CLOCK LH = CP
+        DATA(1) =  U/DBAR
+        SETUPTIME_HI = 4.5ns
+        SETUPTIME_LO = 4ns

.ENDS 74AC169

*-----------------------------------------------------------74ACT169------

* 4-Stage Synchronous Bidirectional Counter