*  Digital Library: 74AS250 -
* ----------------------------------------------------------- 74AS250 ------
*  1-Of-16 Data Generators/Multiplexers With 3-State Outputs
*
*  The ALS/AS Logic Data Book, 1986, TI Pages 2-289 to 2-292
*  bss    3/23/94
*
.SUBCKT 74AS250  GBAR A B C D E0 E1 E2 E3 E4 E5 E6 E7 E8 E9
+     E10 E11 E12 E13 E14 E15 W
+     optional: DPWR=$G_DPWR DGND=$G_DGND
+     params: MNTYMXDLY=0 IO_LEVEL=0

U1LOG LOGICEXP(20,1) DPWR DGND
+     A B C D E0 E1 E2 E3 E4 E5 E6 E7 E8 E9 E10 E11 E12 E13 E14 E15
+     W_O
+     D0_GATE IO_AS00 MNTYMXDLY={MNTYMXDLY} IO_LEVEL={IO_LEVEL}
+
+  LOGIC:
+     abar = {~A}
+     bbar = {~B}
+     cbar = {~C}
+     dbar = {~D}
+     e0o = {E0 & abar & bbar & cbar & dbar}
+     e1o = {E1 & A & bbar & cbar & dbar}
+     e2o = {E2 & abar & B & cbar & dbar}
+     e3o = {E3 & A & B & cbar & dbar}
+     e4o = {E4 & abar & bbar & C & dbar}
+     e5o = {E5 & A & bbar & C & dbar}
+     e6o = {E6 & abar & B & C & dbar}
+     e7o = {E7 & A & B & C & dbar}
+     e8o = {E8 & abar & bbar & cbar & D}
+     e9o = {E9 & A & bbar & cbar & D}
+     e10o = {E10 & abar & B & cbar & D}
+     e11o = {E11 & A & B & cbar & D}
+     e12o = {E12 & abar & bbar & C & D}
+     e13o = {E13 & A & bbar & C & D}
+     e14o = {E14 & abar & B & C & D}
+     e15o = {E15 & A & B & C & D}
+     W_O = {~(e0o | e1o | e2o | e3o | e4o | e5o | e6o | e7o | e8o |
+           e9o | e10o | e11o | e12o | e13o | e14o | e15o)}

U2DLY PINDLY(1,1,20) DWPR DGND
+     W_O
+     GBAR
+     A B C D E0 E1 E2 E3 E4 E5 E6 E7 E8 E9 E10 E11 E12 E13 E14 E15
+     W
+     IO_AS00 MNTYMXDLY={MNTYMXDLY} IO_LEVEL={IO_LEVEL}
+
+  BOOLEAN:
+     DATA = {CHANGED(E0,0) | CHANGED(E1,0) | CHANGED(E2,0) | CHANGED(E3,0) |
+          CHANGED(E4,0) | CHANGED(E5,0) | CHANGED(E6,0) | CHANGED(E7,0) |
+          CHANGED(E8,0) | CHANGED(E9,0) | CHANGED(E10,0) | CHANGED(E11,0) |
+          CHANGED(E12,0) | CHANGED(E13,0) | CHANGED(E14,0) | CHANGED(E15,0)}
+     SELECT = {CHANGED(A,0) | CHANGED(B,0) | CHANGED(C,0) | CHANGED(D,0)}
+
+  TRISTATE:
+     ENABLE LO=GBAR
+     W = {
+       CASE(
+         SELECT & TRN_LH, DELAY(4ns,-1,13ns),
+         SELECT & TRN_HL, DELAY(4ns,-1,10ns),
+         DATA & TRN_LH, DELAY(3ns,-1,8ns),
+         DATA & TRN_HL, DELAY(2ns,-1,6ns),
+         TRN_ZH, DELAY(2ns,-1,7ns),
+         TRN_ZL, DELAY(4ns,-1,20ns),
+         TRN_HZ, DELAY(2ns,-1,6ns),
+         TRN_LZ, DELAY(2ns,-1,6ns),
+         DELAY(5ns,-1,21ns))}

.ENDS 74AS250
*
*
* ----------------------------------------------------------- 74251 ------
*  Data Selectors/Multiplexers With 3-State Outputs
*
*  The TTL Logic Data Book, 1988, TI Pages 2-715 to 2-722
*  bss    3/23/94
*
.SUBCKT 74251  GBAR A B C D0 D1 D2 D3 D4 D5 D6 D7 Y W
+     optional: DPWR=$G_DPWR DGND=$G_DGND
+     params: MNTYMXDLY=0 IO_LEVEL=0

U1LOG LOGICEXP(12,2) DPWR DGND
+     GBAR A B C D0 D1 D2 D3 D4 D5 D6 D7
+     Y_O W_O
+     D0_GATE IO_STD MNTYMXDLY={MNTYMXDLY} IO_LEVEL={IO_LEVEL}
+
+  LOGIC:
+     abar = {~A}
+     bbar = {~B}
+     cbar = {~C}
+     g = {~GBAR}
+     d0o = {D0 & abar & bbar & cbar & g}
+     d1o = {D1 & A & bbar & cbar & g}
+     d2o = {D2 & abar & B & cbar & g}
+     d3o = {D3 & A & B & cbar & g}
+     d4o = {D4 & abar & bbar & C & g}
+     d5o = {D5 & A & bbar & C & g}
+     d6o = {D6 & abar & B & C & g}
+     d7o = {D7 & A & B & C & g}
+     W_O = {~(d0o | d1o | d2o | d3o | d4o | d5o | d6o | d7o)}
+     Y_O = {~W_O}

U2DLY PINDLY(2,1,11) DPWR DGND
+     Y_O W_O
+     GBAR
+     A B C D0 D1 D2 D3 D4 D5 D6 D7
+     Y W
+     IO_STD MNTYMXDLY={MNTYMXDLY} IO_LEVEL={IO_LEVEL}
+
+  BOOLEAN:
+     DATA = {CHANGED(D0,0) | CHANGED(D1,0) | CHANGED(D2,0) | CHANGED(D3,0) |
+         CHANGED(D4,0) | CHANGED(D5,0) | CHANGED(D6,0) | CHANGED(D7,0)}
+     SELECT = {CHANGED(A,0) | CHANGED(B,0) | CHANGED(C,0)}
+
+  TRISTATE:
+     ENABLE LO=GBAR
+     Y = {
+       CASE(
+         SELECT & TRN_LH, DELAY(-1,29ns,45ns),
+         SELECT & TRN_HL, DELAY(-1,28ns,45ns),
+         TRN_ZH, DELAY(-1,17ns,27ns),
+         TRN_ZL, DELAY(-1,26ns,40ns),
+         DATA & TRN_LH, DELAY(-1,17ns,28ns),
+         DATA & TRN_HL, DELAY(-1,18ns,28ns),
+         TRN_HZ, DELAY(-1,5ns,8ns),
+         TRN_LZ, DELAY(-1,15ns,23ns),
+         DELAY(-1,30ns,46ns))}
+
+     W = {
+       CASE(
+         SELECT & TRN_LH, DELAY(-1,20ns,33ns),
+         SELECT & TRN_HL, DELAY(-1,21ns,33ns),
+         TRN_ZH, DELAY(-1,17ns,27ns),
+         TRN_ZL, DELAY(-1,24ns,40ns),
+         DATA & TRN_LH, DELAY(-1,10ns,15ns),
+         DATA & TRN_HL, DELAY(-1,9ns,15ns),
+         TRN_HZ, DELAY(-1,5ns,8ns),
+         TRN_LZ, DELAY(-1,15ns,23ns),
+         DELAY(-1,25ns,41ns))}

.ENDS 74251
*
*
* ----------------------------------------------------------- 74AC251 ------
*  8-Input Multiplexer With Tri-State Output
*
*  The FACT Advanced CMOS Logic Data Book, 1989, National Pages 4-142 to 4-147
*  bss    3/24/94
*
.SUBCKT 74AC251  OEBAR S0 S1 S2 I0 I1 I2 I3 I4 I5 I6 I7 Z ZBAR
+     optional: DPWR=$G_DPWR DGND=$G_DGND
+     params: MNTYMXDLY=0 IO_LEVEL=0

U1LOG LOGICEXP(12,2) DPWR DGND
+     OEBAR S0 S1 S2 I0 I1 I2 I3 I4 I5 I6 I7
+     Z_O ZBAR_O
+     D0_GATE IO_AC MNTYMXDLY={MNTYMXDLY} IO_LEVEL={IO_LEVEL}
+
+  LOGIC:
+     s0bar = {~S0}
+     s1bar = {~S1}
+     s2bar = {~S2}
+     oe = {~OEBAR}
+     i0o = {I0 & s0bar & s1bar & s2bar & oe}
+     i1o = {I1 & S0 & s1bar & s2bar & oe}
+     i2o = {I2 & s0bar & S1 & s2bar & oe}
+     i3o = {I3 & S0 & S1 & s2bar & oe}
+     i4o = {I4 & s0bar & s1bar & S2 & oe}
+     i5o = {I5 & S0 & s1bar & S2 & oe}
+     i6o = {I6 & s0bar & S1 & S2 & oe}
+     i7o = {I7 & S0 & S1 & S2 & oe}
+     ZBAR_O = {~(i0o | i1o | i2o | i3o | i4o | i5o | i6o | i7o)}
+     Z_O = {~ZBAR_O}

U2DLY PINDLY(2,1,11) DPWR DGND
+     Z_O ZBAR_O
+     OEBAR
+     S0 S1 S2 I0 I1 I2 I3 I4 I5 I6 I7
+     Z ZBAR
+     IO_AC MNTYMXDLY={MNTYMXDLY} IO_LEVEL={IO_LEVEL}
+
+  BOOLEAN:
+     DATA = {CHANGED(I0,0) | CHANGED(I1,0) | CHANGED(I2,0) | CHANGED(I3,0) |
+         CHANGED(I4,0) | CHANGED(I5,0) | CHANGED(I6,0) | CHANGED(I7,0)}
+     SELECT = {CHANGED(S0,0) | CHANGED(S1,0) | CHANGED(S2,0)}
+
+  TRISTATE:
+     ENABLE LO=OEBAR
+     Z ZBAR = {
+       CASE(
+         SELECT & TRN_LH, DELAY(1.5ns,8.5ns,12.5ns),
+         SELECT & TRN_HL, DELAY(1.5ns,8ns,12.5ns),
+         TRN_ZH, DELAY(1.5ns,5.5ns,8ns),
+         TRN_ZL, DELAY(1.5ns,5.5ns,8ns),
+         DATA & TRN_LH, DELAY(1.5ns,7ns,10ns),
+         DATA & TRN_HL, DELAY(1.5ns,6.5ns,10ns),
+         TRN_HZ, DELAY(1.5ns,7ns,9.5ns),
+         TRN_LZ, DELAY(1.5ns,5.5ns,8ns),
+         DELAY(2.5ns,9.5ns,13.5ns))}

.ENDS 74AC251
*
*
* ----------------------------------------------------------- 74ACT251 ------
*  8-Input Multiplexer With Tri-State Output
*
*  The FACT Advanced CMOS Logic Data Book, 1989, National Pages 4-142 to 4-147
*  bss    3/24/94
*
.SUBCKT 74ACT251  OEBAR S0 S1 S2 I0 I1 I2 I3 I4 I5 I6 I7 Z ZBAR
+     optional: DPWR=$G_DPWR DGND=$G_DGND
+     params: MNTYMXDLY=0 IO_LEVEL=0

U1LOG LOGICEXP(12,2) DPWR DGND
+     OEBAR S0 S1 S2 I0 I1 I2 I3 I4 I5 I6 I7
+     Z_O ZBAR_O
+     D0_GATE IO_ACT MNTYMXDLY={MNTYMXDLY} IO_LEVEL={IO_LEVEL}
+
+  LOGIC:
+     s0bar = {~S0}
+     s1bar = {~S1}
+     s2bar = {~S2}
+     oe = {~OEBAR}
+     i0o = {I0 & s0bar & s1bar & s2bar & oe}
+     i1o = {I1 & S0 & s1bar & s2bar & oe}
+     i2o = {I2 & s0bar & S1 & s2bar & oe}
+     i3o = {I3 & S0 & S1 & s2bar & oe}
+     i4o = {I4 & s0bar & s1bar & S2 & oe}
+     i5o = {I5 & S0 & s1bar & S2 & oe}
+     i6o = {I6 & s0bar & S1 & S2 & oe}
+     i7o = {I7 & S0 & S1 & S2 & oe}
+     ZBAR_O = {~(i0o | i1o | i2o | i3o | i4o | i5o | i6o | i7o)}
+     Z_O = {~ZBAR_O}

U2DLY PINDLY(2,1,11) DPWR DGND
+     Z_O ZBAR_O
+     OEBAR
+     S0 S1 S2 I0 I1 I2 I3 I4 I5 I6 I7
+     Z ZBAR
+     IO_ACT MNTYMXDLY={MNTYMXDLY} IO_LEVEL={IO_LEVEL}
+
+  BOOLEAN:
+     DATA = {CHANGED(I0,0) | CHANGED(I1,0) | CHANGED(I2,0) | CHANGED(I3,0) |
+         CHANGED(I4,0) | CHANGED(I5,0) | CHANGED(I6,0) | CHANGED(I7,0)}
+     SELECT = {CHANGED(S0,0) | CHANGED(S1,0) | CHANGED(S2,0)}
+
+  TRISTATE:
+     ENABLE LO=OEBAR
+     Z ZBAR = {
+       CASE(
+         SELECT & TRN_LH, DELAY(2.5ns,7ns,15.5ns),
+         SELECT & TRN_HL, DELAY(2.5ns,7.5ns,16.5ns),
+         TRN_ZH, DELAY(1.5ns,5ns,8.5ns),
+         TRN_ZL, DELAY(1.5ns,4.5ns,8.5ns),
+         DATA & TRN_LH, DELAY(2.5ns,5.5ns,12ns),
+         DATA & TRN_HL, DELAY(2.5ns,6.5ns,12.5ns),
+         TRN_HZ, DELAY(2ns,6ns,12ns),
+         TRN_LZ, DELAY(3ns,4.5ns,8.5ns),
+         DELAY(4ns,8.5ns,17.5ns))}

.ENDS 74ACT251
*
*
* ----------------------------------------------------------- 74ALS251 ------
*  1-Of-8 Data Selectors/Multiplexers With 3-State Outputs
*
*  The ALS/AS Logic Data Book, 1986, TI Pages 2-293 to 2-298
*  bss    3/24/94
*
.SUBCKT 74ALS251  GBAR A B C D0 D1 D2 D3 D4 D5 D6 D7 Y W
+     optional: DPWR=$G_DPWR DGND=$G_DGND
+     params: MNTYMXDLY=0 IO_LEVEL=0

U1LOG LOGICEXP(12,2) DPWR DGND
+     GBAR A B C D0 D1 D2 D3 D4 D5 D6 D7
+     Y_O W_O
+     D0_GATE IO_ALS00 MNTYMXDLY={MNTYMXDLY} IO_LEVEL={IO_LEVEL}
+
+  LOGIC:
+     abar = {~A}
+     bbar = {~B}
+     cbar = {~C}
+     g = {~GBAR}
+     d0o = {D0 & abar & bbar & cbar & g}
+     d1o = {D1 & A & bbar & cbar & g}
+     d2o = {D2 & abar & B & cbar & g}
+     d3o = {D3 & A & B & cbar & g}
+     d4o = {D4 & abar & bbar & C & g}
+     d5o = {D5 & A & bbar & C & g}
+     d6o = {D6 & abar & B & C & g}
+     d7o = {D7 & A & B & C & g}
+     W_O = {~(d0o | d1o | d2o | d3o | d4o | d5o | d6o | d7o)}
+     Y_O = {~W_O}

U2DLY PINDLY(2,1,11) DPWR DGND
+     Y_O W_O
+     GBAR
+     A B C D0 D1 D2 D3 D4 D5 D6 D7
+     Y W
+     IO_ALS00 MNTYMXDLY={MNTYMXDLY} IO_LEVEL={IO_LEVEL}
+
+  BOOLEAN:
+     DATA = {CHANGED(D0,0) | CHANGED(D1,0) | CHANGED(D2,0) | CHANGED(D3,0) |
+         CHANGED(D4,0) | CHANGED(D5,0) | CHANGED(D6,0) | CHANGED(D7,0)}
+     SELECT = {CHANGED(A,0) | CHANGED(B,0) | CHANGED(C,0)}
+
+  TRISTATE:
+     ENABLE LO=GBAR
+     Y = {
+       CASE(
+         SELECT & TRN_LH, DELAY(5ns,-1,18ns),
+         SELECT & TRN_HL, DELAY(8ns,-1,24ns),
+         TRN_ZH, DELAY(3ns,-1,15ns),
+         TRN_ZL, DELAY(3ns,-1,15ns),
+         DATA & TRN_LH, DELAY(2ns,-1,10ns),
+         DATA & TRN_HL, DELAY(3ns,-1,15ns),
+         TRN_HZ, DELAY(2ns,-1,10ns),
+         TRN_LZ, DELAY(1ns,-1,10ns),
+         DELAY(9ns,-1,25ns))}
+
+     W = {
+       CASE(
+         SELECT & TRN_LH, DELAY(8ns,-1,24ns),
+         SELECT & TRN_HL, DELAY(7ns,-1,23ns),
+         TRN_ZH, DELAY(3ns,-1,15ns),
+         TRN_ZL, DELAY(3ns,-1,15ns),
+         DATA & TRN_LH, DELAY(3ns,-1,15ns),
+         DATA & TRN_HL, DELAY(3ns,-1,15ns),
+         TRN_HZ, DELAY(2ns,-1,10ns),
+         TRN_LZ, DELAY(1ns,-1,10ns),
+         DELAY(9ns,-1,25ns))}

.ENDS 74ALS251
*
*
* ----------------------------------------------------------- 74AS251 ------
*  1-Of-8 Data Selectors/Multiplexers With 3-State Outputs
*
*  The ALS/AS Logic Data Book, 1986, TI Pages 2-293 to 2-298
*  bss    3/24/94
*
.SUBCKT 74AS251  GBAR A B C D0 D1 D2 D3 D4 D5 D6 D7 Y W
+     optional: DPWR=$G_DPWR DGND=$G_DGND
+     params: MNTYMXDLY=0 IO_LEVEL=0

U1LOG LOGICEXP(12,2) DPWR DGND
+     GBAR A B C D0 D1 D2 D3 D4 D5 D6 D7
+     Y_O W_O
+     D0_GATE IO_AS00 MNTYMXDLY={MNTYMXDLY} IO_LEVEL={IO_LEVEL}
+
+  LOGIC:
+     abar = {~A}
+     bbar = {~B}
+     cbar = {~C}
+     g = {~GBAR}
+     d0o = {D0 & abar & bbar & cbar & g}
+     d1o = {D1 & A & bbar & cbar & g}
+     d2o = {D2 & abar & B & cbar & g}
+     d3o = {D3 & A & B & cbar & g}
+     d4o = {D4 & abar & bbar & C & g}
+     d5o = {D5 & A & bbar & C & g}
+     d6o = {D6 & abar & B & C & g}
+     d7o = {D7 & A & B & C & g}
+     W_O = {~(d0o | d1o | d2o | d3o | d4o | d5o | d6o | d7o)}
+     Y_O = {~W_O}

U2DLY PINDLY(2,1,11) DPWR DGND
+     Y_O W_O
+     GBAR
+     A B C D0 D1 D2 D3 D4 D5 D6 D7
+     Y W
+     IO_AS00 MNTYMXDLY={MNTYMXDLY} IO_LEVEL={IO_LEVEL}
+
+  BOOLEAN:
+     DATA = {CHANGED(D0,0) | CHANGED(D1,0) | CHANGED(D2,0) | CHANGED(D3,0) |
+         CHANGED(D4,0) | CHANGED(D5,0) | CHANGED(D6,0) | CHANGED(D7,0)}
+     SELECT = {CHANGED(A,0) | CHANGED(B,0) | CHANGED(C,0)}
+
+  TRISTATE:
+     ENABLE LO=GBAR
+     Y = {
+       CASE(
+         TRN_ZH, DELAY(-1,5ns,-1),
+         TRN_ZL, DELAY(-1,6ns,-1),
+         TRN_HZ, DELAY(-1,3ns,-1),
+         TRN_LZ, DELAY(-1,4ns,-1),
+         SELECT, DELAY(-1,5ns,-1),
+         DATA & TRN_LH, DELAY(-1,3ns,-1),
+         DATA & TRN_HL, DELAY(-1,4ns,-1),
+         DELAY(-1,7ns,-1))}
+
+     W = {
+       CASE(
+         TRN_ZH, DELAY(-1,5ns,-1),
+         TRN_ZL, DELAY(-1,6ns,-1),
+         TRN_HZ, DELAY(-1,3ns,-1),
+         TRN_LZ, DELAY(-1,4ns,-1),
+         SELECT, DELAY(-1,4.5ns,-1),
+         DATA & TRN_LH, DELAY(-1,3ns,-1),
+         DATA & TRN_HL, DELAY(-1,2.5ns,-1),
+         DELAY(-1,7ns,-1))}

.ENDS 74AS251
*
*
* ----------------------------------------------------------- 74F251 ------
*  8-Input Multiplexer With Tri-State Output
*
*  The FAST TTL Logic Data Book, 1992, Philips Pages 339 to 343
*  bss    3/24/94
*
.SUBCKT 74F251  OEBAR S0 S1 S2 I0 I1 I2 I3 I4 I5 I6 I7 Y YBAR
+     optional: DPWR=$G_DPWR DGND=$G_DGND
+     params: MNTYMXDLY=0 IO_LEVEL=0

U1LOG LOGICEXP(12,2) DPWR DGND
+     OEBAR S0 S1 S2 I0 I1 I2 I3 I4 I5 I6 I7
+     Y_O YBAR_O
+     D0_GATE IO_F MNTYMXDLY={MNTYMXDLY} IO_LEVEL={IO_LEVEL}
+
+  LOGIC:
+     s0bar = {~S0}
+     s1bar = {~S1}
+     s2bar = {~S2}
+     oe = {~OEBAR}
+     i0o = {I0 & s0bar & s1bar & s2bar & oe}
+     i1o = {I1 & S0 & s1bar & s2bar & oe}
+     i2o = {I2 & s0bar & S1 & s2bar & oe}
+     i3o = {I3 & S0 & S1 & s2bar & oe}
+     i4o = {I4 & s0bar & s1bar & S2 & oe}
+     i5o = {I5 & S0 & s1bar & S2 & oe}
+     i6o = {I6 & s0bar & S1 & S2 & oe}
+     i7o = {I7 & S0 & S1 & S2 & oe}
+     YBAR_O = {~(i0o | i1o | i2o | i3o | i4o | i5o | i6o | i7o)}
+     Y_O = {~YBAR_O}

U2DLY PINDLY(2,1,11) DPWR DGND
+     Y_O YBAR_O
+     OEBAR
+     S0 S1 S2 I0 I1 I2 I3 I4 I5 I6 I7
+     Y YBAR
+     IO_F MNTYMXDLY={MNTYMXDLY} IO_LEVEL={IO_LEVEL}
+
+  BOOLEAN:
+     DATA = {CHANGED(I0,0) | CHANGED(I1,0) | CHANGED(I2,0) | CHANGED(I3,0) |
+         CHANGED(I4,0) | CHANGED(I5,0) | CHANGED(I6,0) | CHANGED(I7,0)}
+     SELECT = {CHANGED(S0,0) | CHANGED(S1,0) | CHANGED(S2,0)}
+
+  TRISTATE:
+     ENABLE LO=OEBAR
+     Y = {
+       CASE(
+         SELECT & TRN_LH, DELAY(4ns,7ns,9.5ns),
+         SELECT & TRN_HL, DELAY(4ns,7ns,9ns),
+         TRN_ZH, DELAY(4ns,6.5ns,10ns),
+         TRN_ZL, DELAY(4ns,5.5ns,8ns),
+         DATA & TRN_LH, DELAY(3ns,4ns,6ns),
+         DATA & TRN_HL, DELAY(3ns,4.5ns,6.5ns),
+         TRN_HZ, DELAY(2.5ns,4ns,6.5ns),
+         TRN_LZ, DELAY(3ns,4ns,6.5ns),
+         DELAY(5ns,8ns,11ns))}
+
+     YBAR = {
+       CASE(
+         SELECT & TRN_LH, DELAY(3.5ns,6ns,9ns),
+         SELECT & TRN_HL, DELAY(1.5ns,5ns,7.5ns),
+         TRN_ZH, DELAY(4ns,5.5ns,8ns),
+         TRN_ZL, DELAY(4ns,5.5ns,8ns),
+         DATA & TRN_LH, DELAY(2.5ns,4ns,6ns),
+         DATA & TRN_HL, DELAY(1ns,2ns,4ns),
+         TRN_HZ, DELAY(2.5ns,4ns,6ns),
+         TRN_LZ, DELAY(2ns,4ns,6.5ns),
+         DELAY(5ns,7ns,10ns))}

.ENDS 74F251
*
*
* ----------------------------------------------------------- 74F251A ------
*  8-Input Multiplexer With Tri-State Output
*
*  The FAST TTL Logic Data Book, 1992, Philips Pages 339 to 343
*  bss    3/24/94
*
.SUBCKT 74F251A  OEBAR S0 S1 S2 I0 I1 I2 I3 I4 I5 I6 I7 Y YBAR
+     optional: DPWR=$G_DPWR DGND=$G_DGND
+     params: MNTYMXDLY=0 IO_LEVEL=0

U1LOG LOGICEXP(12,2) DPWR DGND
+     OEBAR S0 S1 S2 I0 I1 I2 I3 I4 I5 I6 I7
+     Y_O YBAR_O
+     D0_GATE IO_F MNTYMXDLY={MNTYMXDLY} IO_LEVEL={IO_LEVEL}
+
+  LOGIC:
+     s0bar = {~S0}
+     s1bar = {~S1}
+     s2bar = {~S2}
+     oe = {~OEBAR}
+     i0o = {I0 & s0bar & s1bar & s2bar & oe}
+     i1o = {I1 & S0 & s1bar & s2bar & oe}
+     i2o = {I2 & s0bar & S1 & s2bar & oe}
+     i3o = {I3 & S0 & S1 & s2bar & oe}
+     i4o = {I4 & s0bar & s1bar & S2 & oe}
+     i5o = {I5 & S0 & s1bar & S2 & oe}
+     i6o = {I6 & s0bar & S1 & S2 & oe}
+     i7o = {I7 & S0 & S1 & S2 & oe}
+     YBAR_O = {~(i0o | i1o | i2o | i3o | i4o | i5o | i6o | i7o)}
+     Y_O = {~YBAR_O}

U2DLY PINDLY(2,1,11) DPWR DGND
+     Y_O YBAR_O
+     OEBAR
+     S0 S1 S2 I0 I1 I2 I3 I4 I5 I6 I7
+     Y YBAR
+     IO_F MNTYMXDLY={MNTYMXDLY} IO_LEVEL={IO_LEVEL}
+
+  BOOLEAN:
+     DATA = {CHANGED(I0,0) | CHANGED(I1,0) | CHANGED(I2,0) | CHANGED(I3,0) |
+         CHANGED(I4,0) | CHANGED(I5,0) | CHANGED(I6,0) | CHANGED(I7,0)}
+     SELECT = {CHANGED(S0,0) | CHANGED(S1,0) | CHANGED(S2,0)}
+
+  TRISTATE:
+     ENABLE LO=OEBAR
+     Y = {
+       CASE(
+         SELECT & TRN_LH, DELAY(4.5ns,6.5ns,10ns),
+         SELECT & TRN_HL, DELAY(4ns,5.5ns,9ns),
+         TRN_ZH, DELAY(3.5ns,5.5ns,7.5ns),
+         TRN_ZL, DELAY(3.5ns,5ns,7.5ns),
+         TRN_HZ, DELAY(2.5ns,4ns,6.5ns),
+         TRN_LZ, DELAY(1ns,4ns,6ns),
+         DATA, DELAY(3ns,5ns,7ns),
+         DELAY(5.5ns,7.5ns,11ns))}
+
+     YBAR = {
+       CASE(
+         SELECT & TRN_LH, DELAY(3.5ns,6ns,9ns),
+         SELECT & TRN_HL, DELAY(2.5ns,4.5ns,7ns),
+         TRN_ZH, DELAY(2.5ns,4ns,6.5ns),
+         TRN_ZL, DELAY(2.5ns,4ns,6.5ns),
+         DATA & TRN_LH, DELAY(2.5ns,4.5ns,7ns),
+         DATA & TRN_HL, DELAY(1ns,2.5ns,5ns),
+         TRN_HZ, DELAY(3.5ns,5ns,7.5ns),
+         TRN_LZ, DELAY(1ns,2ns,4.5ns),
+         DELAY(4.5ns,7ns,10ns))}

.ENDS 74F251A

*-------------------------------------------------------------74F251B-------

* 1 of 8 Data Selectors/Multiplexers with 3-State Outputs
* TI F Logic Data Book, 1994, pages 2-181 to 2-185
* jat 7/2/96

.SUBCKT 74F251B GBAR A B C D0 D1 D2 D3 D4 D5 D6 D7 Y W
+ OPTIONAL: DPWR=$G_DPWR DGND=$G_DGND
+ PARAMS: MNTYMXDLY=0 IO_LEVEL=0

U1 LOGICEXP(11,2) DPWR DGND
+ D0 D1 D2 D3 D4 D5 D6 D7 A B C
+ YO WO
+ D0_GATE IO_F MNTYMXDLY={MNTYMXDLY} IO_LEVEL={IO_LEVEL}
+ LOGIC:
+   AND0 = {D0 & (~A) & (~B) & (~C)}
+   AND1 = {D1 & (A) & (~B) & (~C)}
+   AND2 = {D2 & (~A) & (B) & (~C)}
+   AND3 = {D3 & (A) & (B) & (~C)}
+   AND4 = {D4 & (~A) & (~B) & (C)}
+   AND5 = {D5 & (A) & (~B) & (C)}
+   AND6 = {D6 & (~A) & (B) & (C)}
+   AND7 = {D7 & (A) & (B) & (C)}
+   YO = {AND0 | AND1 | AND2 | AND3 | AND4 | AND5 | AND6 | AND7}
+   WO = {~YO}

U2 PINDLY(2,1,11) DPWR DGND
+ YO WO
+ GBAR
+ A B C D0 D1 D2 D3 D4 D5 D6 D7
+ Y W
+ IO_F MNTYMXDLY={MNTYMXDLY} IO_LEVEL={IO_LEVEL}
+ BOOLEAN:
+   DATA = {CHANGED(D0,0) | CHANGED(D1,0) | CHANGED(D2,0) | CHANGED(D3,0) |
+           CHANGED(D4,0) | CHANGED(D5,0) | CHANGED(D6,0) | CHANGED(D7,0)}
+   SELECT = {CHANGED(A,0) | CHANGED(B,0) | CHANGED(C,0)}
+ TRISTATE:
+   ENABLE LO = GBAR
+    Y = {
+      CASE(
+         TRN_ZH, DELAY(3.4NS,4.8NS,7NS),
+         TRN_ZL, DELAY(2.9NS,4NS,7.5NS),
+         TRN_HZ, DELAY(1.9NS,2.5NS,5.5NS),
+         TRN_LZ, DELAY(1NS,2.3NS,4.5NS),
+         SELECT & TRN_LH, DELAY(4.5NS,6.2NS,10.5NS),
+         SELECT & TRN_HL, DELAY(4NS,6NS,8.5NS),
+         DATA & TRN_LH, DELAY(3NS,3.8NS,7NS),
+         DATA & TRN_HL, DELAY(3NS,4.5NS,7NS),
+         DELAY(5.5NS,7.2NS,11.5NS))}
+    W = {
+      CASE(
+         TRN_ZH, DELAY(2.5NS,3.6NS,6NS),
+         TRN_ZL, DELAY(2.5NS,3.8NS,6NS),
+         TRN_HZ, DELAY(1.9NS,2.5NS,5.5NS),
+         TRN_LZ, DELAY(1NS,2.4NS,4.5NS),
+         SELECT & TRN_LH, DELAY(3.5NS,5.4NS,9NS),
+         SELECT & TRN_HL, DELAY(2.5NS,4.4NS,7.5NS),
+         DATA & TRN_LH, DELAY(2.5NS,3.7NS,6.5NS),
+         DATA & TRN_HL, DELAY(1NS,1.9NS,4NS),
+         DELAY(4.5NS,6.4NS,10NS))}

.ENDS 74F251B

*
*
* ----------------------------------------------------------- 74HC251 ------
*  Data Selectors/Multiplexers With 3-State Outputs
*
*  The High-Speed CMOS Logic Data Book, 1989, TI Pages 2-343 to 2-347
*  bss    3/24/94
*
.SUBCKT 74HC251  GBAR A B C D0 D1 D2 D3 D4 D5 D6 D7 Y W
+     optional: DPWR=$G_DPWR DGND=$G_DGND
+     params: MNTYMXDLY=0 IO_LEVEL=0

U1LOG LOGICEXP(12,2) DPWR DGND
+     GBAR A B C D0 D1 D2 D3 D4 D5 D6 D7
+     Y_O W_O
+     D0_GATE IO_HC MNTYMXDLY={MNTYMXDLY} IO_LEVEL={IO_LEVEL}
+
+  LOGIC:
+     abar = {~A}
+     bbar = {~B}
+     cbar = {~C}
+     g = {~GBAR}
+     d0o = {D0 & abar & bbar & cbar & g}
+     d1o = {D1 & A & bbar & cbar & g}
+     d2o = {D2 & abar & B & cbar & g}
+     d3o = {D3 & A & B & cbar & g}
+     d4o = {D4 & abar & bbar & C & g}
+     d5o = {D5 & A & bbar & C & g}
+     d6o = {D6 & abar & B & C & g}
+     d7o = {D7 & A & B & C & g}
+     W_O = {~(d0o | d1o | d2o | d3o | d4o | d5o | d6o | d7o)}
+     Y_O = {~W_O}

U2DLY PINDLY(2,1,11) DPWR DGND
+     Y_O W_O
+     GBAR
+     A B C D0 D1 D2 D3 D4 D5 D6 D7
+     Y W
+     IO_HC MNTYMXDLY={MNTYMXDLY} IO_LEVEL={IO_LEVEL}
+
+  BOOLEAN:
+     DATA = {CHANGED(D0,0) | CHANGED(D1,0) | CHANGED(D2,0) | CHANGED(D3,0) |
+         CHANGED(D4,0) | CHANGED(D5,0) | CHANGED(D6,0) | CHANGED(D7,0)}
+     SELECT = {CHANGED(A,0) | CHANGED(B,0) | CHANGED(C,0)}
+
+  TRISTATE:
+     ENABLE LO=GBAR
+     Y W = {
+       CASE(
+         TRN_ZH, DELAY(-1,10ns,29ns),
+         TRN_ZL, DELAY(-1,10ns,29ns),
+         TRN_HZ, DELAY(-1,15ns,39ns),
+         TRN_LZ, DELAY(-1,15ns,39ns),
+         SELECT, DELAY(-1,21ns,41ns),
+         DATA, DELAY(-1,17ns,39ns),
+         DELAY(-1,22ns,42ns))}

.ENDS 74HC251
*
*
* ----------------------------------------------------------- 74HCT251 ------
*  8-Input Multiplexer With Tri-State Output
*
*  The High-Speed CMOS Logic Data Book, 1994, Philips Pages 521 to 526
*  bss    3/24/94
*
.SUBCKT 74HCT251  OEBAR S0 S1 S2 I0 I1 I2 I3 I4 I5 I6 I7 Y YBAR
+     optional: DPWR=$G_DPWR DGND=$G_DGND
+     params: MNTYMXDLY=0 IO_LEVEL=0

U1LOG LOGICEXP(11,2) DPWR DGND
+     S0 S1 S2 I0 I1 I2 I3 I4 I5 I6 I7
+     Y_O YBAR_O
+     D0_GATE IO_HCT MNTYMXDLY={MNTYMXDLY} IO_LEVEL={IO_LEVEL}
+
+  LOGIC:
+     s0bar = {~S0}
+     s1bar = {~S1}
+     s2bar = {~S2}
+     i0o = {I0 & s0bar & s1bar & s2bar}
+     i1o = {I1 & S0 & s1bar & s2bar}
+     i2o = {I2 & s0bar & S1 & s2bar}
+     i3o = {I3 & S0 & S1 & s2bar}
+     i4o = {I4 & s0bar & s1bar & S2}
+     i5o = {I5 & S0 & s1bar & S2}
+     i6o = {I6 & s0bar & S1 & S2}
+     i7o = {I7 & S0 & S1 & S2}
+     YBAR_O = {~(i0o | i1o | i2o | i3o | i4o | i5o | i6o | i7o)}
+     Y_O = {~YBAR_O}

U2DLY PINDLY(2,1,11) DPWR DGND
+     Y_O YBAR_O
+     OEBAR
+     S0 S1 S2 I0 I1 I2 I3 I4 I5 I6 I7
+     Y YBAR
+     IO_HCT MNTYMXDLY={MNTYMXDLY} IO_LEVEL={IO_LEVEL}
+
+  BOOLEAN:
+     DATA = {CHANGED(I0,0) | CHANGED(I1,0) | CHANGED(I2,0) | CHANGED(I3,0) |
+         CHANGED(I4,0) | CHANGED(I5,0) | CHANGED(I6,0) | CHANGED(I7,0)}
+     SELECT = {CHANGED(S0,0) | CHANGED(S1,0) | CHANGED(S2,0)}
+
+  TRISTATE:
+     ENABLE LO=OEBAR
+     Y = {
+       CASE(
+         TRN_ZH, DELAY(-1,13ns,28ns),
+         TRN_ZL, DELAY(-1,13ns,28ns),
+         TRN_HZ, DELAY(-1,14ns,28ns),
+         TRN_LZ, DELAY(-1,14ns,28ns),
+         SELECT, DELAY(-1,24ns,44ns),
+         DATA, DELAY(-1,22ns,35ns),
+         DELAY(-1,25ns,45ns))}
+
+     YBAR = {
+       CASE(
+         TRN_ZH, DELAY(-1,13ns,28ns),
+         TRN_ZL, DELAY(-1,13ns,28ns),
+         TRN_HZ, DELAY(-1,14ns,28ns),
+         TRN_LZ, DELAY(-1,14ns,28ns),
+         SELECT, DELAY(-1,25ns,44ns),
+         DATA, DELAY(-1,22ns,35ns),
+         DELAY(-1,26ns,45ns))}

.ENDS 74HCT251
*
*
* ----------------------------------------------------------- 74LS251 ------
*  Data Selectors/Multiplexers With 3-State Outputs
*
*  The TTL Logic Data Book, 1988, TI Pages 2-715 to 2-722
*  bss    3/24/94
*
.SUBCKT 74LS251  GBAR A B C D0 D1 D2 D3 D4 D5 D6 D7 Y W
+     optional: DPWR=$G_DPWR DGND=$G_DGND
+     params: MNTYMXDLY=0 IO_LEVEL=0

U1LOG LOGICEXP(12,2) DPWR DGND
+     GBAR A B C D0 D1 D2 D3 D4 D5 D6 D7
+     Y_O W_O
+     D0_GATE IO_LS MNTYMXDLY={MNTYMXDLY} IO_LEVEL={IO_LEVEL}
+
+  LOGIC:
+     abar = {~A}
+     bbar = {~B}
+     cbar = {~C}
+     g = {~GBAR}
+     d0o = {D0 & abar & bbar & cbar & g}
+     d1o = {D1 & A & bbar & cbar & g}
+     d2o = {D2 & abar & B & cbar & g}
+     d3o = {D3 & A & B & cbar & g}
+     d4o = {D4 & abar & bbar & C & g}
+     d5o = {D5 & A & bbar & C & g}
+     d6o = {D6 & abar & B & C & g}
+     d7o = {D7 & A & B & C & g}
+     W_O = {~(d0o | d1o | d2o | d3o | d4o | d5o | d6o | d7o)}
+     Y_O = {~W_O}

U2DLY PINDLY(2,1,11) DPWR DGND
+     Y_O W_O
+     GBAR
+     A B C D0 D1 D2 D3 D4 D5 D6 D7
+     Y W
+     IO_LS MNTYMXDLY={MNTYMXDLY} IO_LEVEL={IO_LEVEL}
+
+  BOOLEAN:
+     DATA = {CHANGED(D0,0) | CHANGED(D1,0) | CHANGED(D2,0) | CHANGED(D3,0) |
+         CHANGED(D4,0) | CHANGED(D5,0) | CHANGED(D6,0) | CHANGED(D7,0)}
+     SELECT = {CHANGED(A,0) | CHANGED(B,0) | CHANGED(C,0)}
+
+  TRISTATE:
+     ENABLE LO=GBAR
+     Y = {
+       CASE(
+         SELECT & TRN_LH, DELAY(-1,29ns,45ns),
+         SELECT & TRN_HL, DELAY(-1,28ns,45ns),
+         TRN_ZH, DELAY(-1,30ns,45ns),
+         TRN_ZL, DELAY(-1,26ns,40ns),
+         DATA & TRN_LH, DELAY(-1,17ns,28ns),
+         DATA & TRN_HL, DELAY(-1,18ns,28ns),
+         TRN_HZ, DELAY(-1,30ns,45ns),
+         TRN_LZ, DELAY(-1,15ns,25ns),
+         DELAY(-1,31ns,46ns))}
+
+     W = {
+       CASE(
+         SELECT & TRN_LH, DELAY(-1,20ns,33ns),
+         SELECT & TRN_HL, DELAY(-1,21ns,33ns),
+         TRN_ZH, DELAY(-1,17ns,27ns),
+         TRN_ZL, DELAY(-1,24ns,40ns),
+         DATA & TRN_LH, DELAY(-1,10ns,15ns),
+         DATA & TRN_HL, DELAY(-1,9ns,15ns),
+         TRN_HZ, DELAY(-1,37ns,55ns),
+         TRN_LZ, DELAY(-1,15ns,25ns),
+         DELAY(-1,38ns,56ns))}

.ENDS 74LS251
*
*
* ----------------------------------------------------------- 74S251 ------
*  Data Selectors/Multiplexers With 3-State Outputs
*
*  The TTL Logic Data Book, 1988, TI Pages 2-715 to 2-722
*  bss    3/24/94
*
.SUBCKT 74S251  GBAR A B C D0 D1 D2 D3 D4 D5 D6 D7 Y W
+     optional: DPWR=$G_DPWR DGND=$G_DGND
+     params: MNTYMXDLY=0 IO_LEVEL=0

U1LOG LOGICEXP(12,2) DPWR DGND
+     GBAR A B C D0 D1 D2 D3 D4 D5 D6 D7
+     Y_O W_O
+     D0_GATE IO_S MNTYMXDLY={MNTYMXDLY} IO_LEVEL={IO_LEVEL}
+
+  LOGIC:
+     abar = {~A}
+     bbar = {~B}
+     cbar = {~C}
+     g = {~GBAR}
+     d0o = {D0 & abar & bbar & cbar & g}
+     d1o = {D1 & A & bbar & cbar & g}
+     d2o = {D2 & abar & B & cbar & g}
+     d3o = {D3 & A & B & cbar & g}
+     d4o = {D4 & abar & bbar & C & g}
+     d5o = {D5 & A & bbar & C & g}
+     d6o = {D6 & abar & B & C & g}
+     d7o = {D7 & A & B & C & g}
+     W_O = {~(d0o | d1o | d2o | d3o | d4o | d5o | d6o | d7o)}
+     Y_O = {~W_O}

U2DLY PINDLY(2,1,11) DPWR DGND
+     Y_O W_O
+     GBAR
+     A B C D0 D1 D2 D3 D4 D5 D6 D7
+     Y W
+     IO_S MNTYMXDLY={MNTYMXDLY} IO_LEVEL={IO_LEVEL}
+
+  BOOLEAN:
+     DATA = {CHANGED(D0,0) | CHANGED(D1,0) | CHANGED(D2,0) | CHANGED(D3,0) |
+         CHANGED(D4,0) | CHANGED(D5,0) | CHANGED(D6,0) | CHANGED(D7,0)}
+     SELECT = {CHANGED(A,0) | CHANGED(B,0) | CHANGED(C,0)}
+
+  TRISTATE:
+     ENABLE LO=GBAR
+     Y = {
+       CASE(
+         SELECT & TRN_LH, DELAY(-1,12ns,18ns),
+         SELECT & TRN_HL, DELAY(-1,13ns,19.5ns),
+         TRN_ZH, DELAY(-1,13ns,19.5ns),
+         TRN_ZL, DELAY(-1,14ns,21ns),
+         TRN_HZ, DELAY(-1,5.5ns,8.5ns),
+         TRN_LZ, DELAY(-1,9ns,14ns),
+         DATA, DELAY(-1,8ns,12ns),
+         DELAY(-1,15ns,22ns))}
+
+     W = {
+       CASE(
+         SELECT & TRN_LH, DELAY(-1,10ns,15ns),
+         SELECT & TRN_HL, DELAY(-1,9ns,13.5ns),
+         TRN_ZH, DELAY(-1,13ns,19.5ns),
+         TRN_ZL, DELAY(-1,14ns,21ns),
+         TRN_HZ, DELAY(-1,5.5ns,8.5ns),
+         TRN_LZ, DELAY(-1,9ns,14ns),
+         DATA, DELAY(-1,4.5ns,7ns),
+         DELAY(-1,15ns,22ns))}

.ENDS 74S251
*
*
* ----------------------------------------------------------- 74AC253 ------
*  Dual 4-Input Multiplexer With Tri-State Output
*
*  The FACT Advanced CMOS Logic Data Book, 1989, National Pages 4-148 to 4-153
*  bss    3/25/94
*
.SUBCKT 74AC253  S0 S1 OEABAR I0A I1A I2A I3A OEBBAR I0B I1B I2B I3B ZA ZB
+     optional: DPWR=$G_DPWR DGND=$G_DGND
+     params: MNTYMXDLY=0 IO_LEVEL=0

U1LOG LOGICEXP(12,2) DPWR DGND
+     S0 S1 OEABAR I0A I1A I2A I3A OEBBAR I0B I1B I2B I3B
+     ZA_O ZB_O
+     D0_GATE IO_AC MNTYMXDLY={MNTYMXDLY} IO_LEVEL={IO_LEVEL}
+
+  LOGIC:
+     s0bar = {~S0}
+     s1bar = {~S1}
+     oea = {~OEABAR}
+     oeb = {~OEBBAR}
+     a1o = {I0A & s0bar & s1bar & oea}
+     a2o = {I1A & S0 & s1bar & oea}
+     a3o = {I2A & s0bar & S1 & oea}
+     a4o = {I3A & S0 & S1 & oea}
+     b1o = {I0B & s0bar & s1bar & oeb}
+     b2o = {I1B & S0 & s1bar & oeb}
+     b3o = {I2B & s0bar & S1 & oeb}
+     b4o = {I3B & S0 & S1 & oeb}
+     ZA_O = {a1o | a2o | a3o | a4o}
+     ZB_O = {b1o | b2o | b3o | b4o}

U2DLY PINDLY(2,2,10) DPWR DGND
+     ZA_O ZB_O
+     OEABAR OEBBAR
+     S0 S1 I0A I1A I2A I3A I0B I1B I2B I3B
+     ZA ZB
+     IO_AC MNTYMXDLY={MNTYMXDLY} IO_LEVEL={IO_LEVEL}
+
+  BOOLEAN:
+     SELECT = {CHANGED(S0,0) | CHANGED(S1,0)}
+     DATAA = {CHANGED(I0A,0) | CHANGED(I1A,0) | CHANGED(I2A,0) |
+            CHANGED(I3A,0)}
+     DATAB = {CHANGED(I0B,0) | CHANGED(I1B,0) | CHANGED(I2B,0) |
+            CHANGED(I3B,0)}
+
+  TRISTATE:
+     ENABLE LO=OEABAR
+     ZA = {
+       CASE(
+         SELECT & TRN_LH, DELAY(2ns,6.5ns,11ns),
+         SELECT & TRN_HL, DELAY(2ns,7ns,11.5ns),
+         DATAA & TRN_LH, DELAY(1.5ns,5.5ns,10ns),
+         DATAA & TRN_HL, DELAY(1.5ns,5.5ns,9.5ns),
+         TRN_ZH, DELAY(1.5ns,3.5ns,6ns),
+         TRN_ZL, DELAY(1.5ns,3.5ns,6ns),
+         TRN_HZ, DELAY(2ns,5ns,8ns),
+         TRN_LZ, DELAY(1.5ns,4ns,7ns),
+         DELAY(3ns,8ns,12.5ns))}
+
+  TRISTATE:
+     ENABLE LO=OEBBAR
+     ZB = {
+       CASE(
+         SELECT & TRN_LH, DELAY(2ns,6.5ns,11ns),
+         SELECT & TRN_HL, DELAY(2ns,7ns,11.5ns),
+         DATAB & TRN_LH, DELAY(1.5ns,5.5ns,10ns),
+         DATAB & TRN_HL, DELAY(1.5ns,5.5ns,9.5ns),
+         TRN_ZH, DELAY(1.5ns,3.5ns,6ns),
+         TRN_ZL, DELAY(1.5ns,3.5ns,6ns),
+         TRN_HZ, DELAY(2ns,5ns,8ns),
+         TRN_LZ, DELAY(1.5ns,4ns,7ns),
+         DELAY(3ns,8ns,12.5ns))}

.ENDS 74AC253
*
*
* ----------------------------------------------------------- 74ACT253 ------
*  Dual 4-Input Multiplexer With Tri-State Output
*