* Digital Library 74F381 - 

* ----------------------------------------------------------- 74F381 ------
*  Arithmetic Logic Unit
*
*  The Fast TTL Logic Data Book, 1992, Philips Pages 455 to 460
*  bss    4/14/94
*
.SUBCKT 74F381 S0 S1 S2 Cn A0 A1 A2 A3 B0 B1 B2 B3 GBAR PBAR F0 F1 F2 F3
+     optional:  DPWR=$G_DPWR DGND=$G_DGND
+     params:  MNTYMXDLY=0 IO_LEVEL=0

U1LOG LOGICEXP(12,6) DPWR DGND
+     S0 S1 S2 Cn A0 A1 A2 A3 B0 B1 B2 B3
+     GBAR_O PBAR_O F0_O F1_O F2_O F3_O
+     D0_GATE IO_F MNTYMXDLY={MNTYMXDLY} IO_LEVEL={IO_LEVEL}
+
+  LOGIC:
+     a0bar = {~A0}
+     a1bar = {~A1}
+     a2bar = {~A2}
+     a3bar = {~A3}
+     b0bar = {~B0}
+     b1bar = {~B1}
+     b2bar = {~B2}
+     b3bar = {~B3}
+     s0bar = {~S0}
+     s1bar = {~S1}
+     s2bar = {~S2}
+
+     self1 = {~(s0bar & S1)}
+     self2 = {~(S0 & S1 & s2bar)}
+     self3 = {~((s0bar & S2) | (s1bar & S2))}
+     self4 = {~(s0bar & s1bar)}
+     self5 = {~(s1bar & s2bar)}
+     selout = {~((s0bar & s1bar) | S2)}
+
+     out0a = {~((a0bar & b0bar & self5 & self1) | (self4 & self1 & self2 & A0 & b0bar) |
+            (self5 & self2 & a0bar & B0))}
+     out0b = {~((a0bar & b0bar & self4 & self2 & self3) | (self5 & self1 & A0 & b0bar) |
+            (self5 & self1 & a0bar & B0) | (self4 & self2 & A0 & B0))}
+     out1a = {~((a1bar & b1bar & self1 & self5) | (self4 & self1 & self2 & A1 & b1bar) |
+            (self5 & self2 & a1bar & B1))}
+     out1b = {~((a1bar & b1bar & self4 & self2 & self3) | (self5 & self1 & A1 & b1bar) |
+            (self5 & self1 & a1bar & B1) | (self4 & self2 & A1 & B1))}
+     out2a = {~((a2bar & b2bar & self1 & self5) | (self4 & self1 & self2 & A2 & b2bar) |
+            (self5 & self2 & a2bar & B2))}
+     out2b = {~((a2bar & b2bar & self4 & self2 & self3) | (self5 & self1 & A2 & b2bar) |
+            (self5 & self1 & a2bar & B2) | (self4 & self2 & A2 & B2))}
+     out3a = {~((a3bar & b3bar & self1 & self5) | (self4 & self1 & self2 & A3 & b3bar) |
+            (self5 & self2 & a3bar & B3))}
+     out3b = {~((a3bar & b3bar & self4 & self2 & self3) | (self5 & self1 & A3 & b3bar) |
+            (self5 & self1 & a3bar & B3) | (self4 & self2 & A3 & B3))}
+
+     F0_O = {(~(Cn & selout) ^ out0b)}
+     f1in = {~((Cn & out0a & selout) | (out0a & out0b & selout))}
+     F1_O = {f1in ^ out1b}
+     f2in = {~((Cn & out0a & out1a & selout) | (out0a & out1a & out0b & selout) |
+            (out1a & out1b & selout))}
+     F2_O = {f2in ^ out2b}
+     f3in = {~((Cn & out0a & out1a & out2a & selout) | (out0a & out1a & out2a & out0b & selout) |
+            (out1a & out2a & out1b & selout) | (out2a & out2b & selout))}
+     F3_O = {f3in ^ out3b}
+     PBAR_O = {~(out0a & out1a & out2a & out3a)}
+     GBAR_O = {~((out0a & out1a & out2a & out3a & out0b) | (out1a & out2a & out3a & out1b) |
+            (out2a & out3a & out2b) | (out3a & out3b))}

U2DLY PINDLY(6,0,12) DPWR DGND
+     F0_O F1_O F2_O F3_O PBAR_O GBAR_O
+     Cn A0 A1 A2 A3 B0 B1 B2 B3 S0 S1 S2
+     F0 F1 F2 F3 PBAR GBAR
+     IO_F MNTYMXDLY={MNTYMXDLY} IO_LEVEL={IO_LEVEL}
+
+  BOOLEAN:
+     DATA = {CHANGED(A0,0) | CHANGED(A1,0) | CHANGED(A2,0) | CHANGED(A3,0) |
+            CHANGED(B0,0) | CHANGED(B1,0) | CHANGED(B2,0) | CHANGED(B3,0)}
+     SELECT = {CHANGED(S0,0) | CHANGED(S1,0) | CHANGED(S2,0)}
+     CARRY = {CHANGED(Cn,0)}
+
+  PINDLY:
+     F0 F1 F2 F3 = {
+       CASE(
+         SELECT & TRN_LH, DELAY(5ns,9ns,20ns),
+         SELECT & TRN_HL, DELAY(4ns,7.5ns,10.5ns),
+         DATA & TRN_LH, DELAY(3.5ns,7ns,13ns),
+         DATA & TRN_HL, DELAY(3ns,6ns,9ns),
+         CARRY & TRN_LH, DELAY(2.5ns,6ns,11ns),
+         CARRY & TRN_HL, DELAY(2.5ns,4.5ns,6.5ns),
+         DELAY(6ns,10ns,21ns))}
+
+     PBAR = {
+       CASE(
+         SELECT & TRN_LH, DELAY(5ns,7.5ns,11ns),
+         SELECT & TRN_HL, DELAY(5.5ns,8.5ns,12.5ns),
+         DATA & TRN_LH, DELAY(3ns,5.5ns,8ns),
+         DATA & TRN_HL, DELAY(3.5ns,6ns,8.5ns),
+         DELAY(6.5ns,9.5ns,13.5ns))}
+
+     GBAR = {
+       CASE(
+         SELECT & TRN_LH, DELAY(5ns,7.5ns,11ns),
+         SELECT & TRN_HL, DELAY(5.5ns,8.5ns,12.5ns),
+         DATA & TRN_LH, DELAY(3.5ns,6.5ns,9ns),
+         DATA & TRN_HL, DELAY(3ns,6ns,8.5ns),
+         DELAY(6.5ns,9.5ns,13.5ns))}

.ENDS 74F381
*
*
* ----------------------------------------------------------- 74LS381 ------
*  Arithmetic Logic Unit
*
*  The TTL Logic Data Book, 1988, TI Pages 2-899 to 2-906
*  bss    4/19/94
*
.SUBCKT 74LS381 S0 S1 S2 Cn A0 A1 A2 A3 B0 B1 B2 B3 GBAR PBAR F0 F1 F2 F3
+     optional:  DPWR=$G_DPWR DGND=$G_DGND
+     params:  MNTYMXDLY=0 IO_LEVEL=0

U1LOG LOGICEXP(12,6) DPWR DGND
+     S0 S1 S2 Cn A0 A1 A2 A3 B0 B1 B2 B3
+     GBAR_O PBAR_O F0_O F1_O F2_O F3_O
+     D0_GATE IO_LS MNTYMXDLY={MNTYMXDLY} IO_LEVEL={IO_LEVEL}
+
+  LOGIC:
+     a0bar = {~A0}
+     a1bar = {~A1}
+     a2bar = {~A2}
+     a3bar = {~A3}
+     b0bar = {~B0}
+     b1bar = {~B1}
+     b2bar = {~B2}
+     b3bar = {~B3}
+     s0bar = {~S0}
+     s1bar = {~S1}
+     s2bar = {~S2}
+
+     self1 = {~((S0 & s1bar & s2bar) | (s0bar & S1 & s2bar) | (S0 & S1 & S2))}
+     self2 = {~((S0 & s1bar) | (S0 & S2) | (s0bar & S1))}
+     self3 = {~((S0 & S1) | (s1bar & S2))}
+     self4 = {~(S0 & s1bar & s2bar)}
+     self5 = {~(S0 & S1 & s2bar)}
+     self6 = {~(s0bar & S1 & s2bar)}
+     selout = {((S0 & s2bar) | (S1 & s2bar))}
+
+     out0a = {~((self3 & A0 & b0bar) | (self2 & A0 & B0) | (self3 & a0bar & B0) |
+               (self1 & a0bar & b0bar))}
+     out0b = {~((self6 & A0 & b0bar) | (self5 & A0 & B0) | (self4 & a0bar & B0) |
+               (a0bar & b0bar))}
+     out1a = {~((self3 & A1 & b1bar) | (self2 & A1 & B1) | (self3 & a1bar & B1) |
+               (self1 & a1bar & b1bar))}
+     out1b = {~((self6 & A1 & b1bar) | (self5 & A1 & B1) | (self4 & a1bar & B1) |
+               (a1bar & b1bar))}
+     out2a = {~((self3 & A2 & b2bar) | (self2 & A2 & B2) | (self3 & a2bar & B2) |
+               (self1 & a2bar & b2bar))}
+     out2b = {~((self6 & A2 & b2bar) | (self5 & A2 & B2) | (self4 & a2bar & B2) |
+               (a2bar & b2bar))}
+     out3a = {~((self3 & A3 & b3bar) | (self2 & A3 & B3) | (self3 & a3bar & B3) |
+               (self1 & a3bar & b3bar))}
+     out3b = {~((self6 & A3 & b3bar) | (self5 & A3 & B3) | (self4 & a3bar & B3) |
+               (a3bar & b3bar))}
+
+     F0_O = {~((~(selout & Cn)) ^ out0a)}
+     F1_O = {~((~((selout & Cn & out0a) | (selout & out0b))) ^ out1a)}
+     F2_O = {~((~((selout & Cn & out0a & out1a) | (selout & out1a & out0b) | (selout & out1b))) ^ 
+                out2a)}
+     F3_O = {~((~((selout & Cn & out0a & out1a & out2a) | (selout & out1a & out2a & out0b) |
+                (selout & out2a & out1b) | (selout & out2b))) ^ out3a)}
+     PBAR_O = {~(out0a & out1a & out2a & out3a)}
+     GBAR_O = {~((out1a & out2a & out3a & out0b) | (out2a & out3a & out1b) | (out3a & out2b) |
+                 out3b)}

U2DLY PINDLY(6,0,12) DPWR DGND
+     F0_O F1_O F2_O F3_O PBAR_O GBAR_O
+     Cn A0 A1 A2 A3 B0 B1 B2 B3 S0 S1 S2
+     F0 F1 F2 F3 PBAR GBAR
+     IO_LS MNTYMXDLY={MNTYMXDLY} IO_LEVEL={IO_LEVEL}
+
+  BOOLEAN:
+     DATA = {CHANGED(A0,0) | CHANGED(A1,0) | CHANGED(A2,0) | CHANGED(A3,0) |
+            CHANGED(B0,0) | CHANGED(B1,0) | CHANGED(B2,0) | CHANGED(B3,0)}
+     SELECT = {CHANGED(S0,0) | CHANGED(S1,0) | CHANGED(S2,0)}
+     CARRY = {CHANGED(Cn,0)}
+
+  PINDLY:
+     F0 F1 F2 F3 = {
+       CASE(
+         SELECT & TRN_LH, DELAY(-1,35ns,53ns),
+         SELECT & TRN_HL, DELAY(-1,34ns,51ns),
+         DATA & TRN_LH, DELAY(-1,20ns,30ns),
+         DATA & TRN_HL, DELAY(-1,15ns,23ns),
+         CARRY & TRN_LH, DELAY(-1,18ns,27ns),
+         CARRY & TRN_HL, DELAY(-1,14ns,21ns),
+         DELAY(-1,36ns,54ns))}
+
+     PBAR = {
+       CASE(
+         SELECT & TRN_LH, DELAY(-1,31ns,47ns),
+         SELECT & TRN_HL, DELAY(-1,32ns,48ns),
+         DATA & TRN_LH, DELAY(-1,21ns,33ns),
+         DATA & TRN_HL, DELAY(-1,23ns,33ns),
+         DELAY(-1,33ns,49ns))}
+
+     GBAR = {
+       CASE(
+         SELECT & TRN_LH, DELAY(-1,31ns,47ns),
+         SELECT & TRN_HL, DELAY(-1,32ns,48ns),
+         DATA & TRN_LH, DELAY(-1,20ns,30ns),
+         DATA & TRN_HL, DELAY(-1,21ns,33ns),
+         DELAY(-1,33ns,49ns))}

.ENDS 74LS381
*
*
* ----------------------------------------------------------- 74S381 ------
*  Arithmetic Logic Unit
*
*  The TTL Logic Data Book, 1988, TI Pages 2-899 to 2-906
*  bss    4/19/94
*
.SUBCKT 74S381 S0 S1 S2 Cn A0 A1 A2 A3 B0 B1 B2 B3 GBAR PBAR F0 F1 F2 F3
+     optional:  DPWR=$G_DPWR DGND=$G_DGND
+     params:  MNTYMXDLY=0 IO_LEVEL=0

U1LOG LOGICEXP(12,6) DPWR DGND
+     S0 S1 S2 Cn A0 A1 A2 A3 B0 B1 B2 B3
+     GBAR_O PBAR_O F0_O F1_O F2_O F3_O
+     D0_GATE IO_S MNTYMXDLY={MNTYMXDLY} IO_LEVEL={IO_LEVEL}
+
+  LOGIC:
+     a0bar = {~A0}
+     a1bar = {~A1}
+     a2bar = {~A2}
+     a3bar = {~A3}
+     b0bar = {~B0}
+     b1bar = {~B1}
+     b2bar = {~B2}
+     b3bar = {~B3}
+     s0bar = {~S0}
+     s1bar = {~S1}
+     s2bar = {~S2}
+
+     self1 = {~((S0 & s1bar & s2bar) | (s0bar & S1 & s2bar) | (S0 & S1 & S2))}
+     self2 = {~((S0 & s1bar) | (S0 & S2) | (s0bar & S1))}
+     self3 = {~((S0 & S1) | (s1bar & S2))}
+     self4 = {~(S0 & s1bar & s2bar)}
+     self5 = {~(S0 & S1 & s2bar)}
+     self6 = {~(s0bar & S1 & s2bar)}
+     selout = {((S0 & s2bar) | (S1 & s2bar))}
+
+     out0a = {~((self3 & A0 & b0bar) | (self2 & A0 & B0) | (self3 & a0bar & B0) |
+               (self1 & a0bar & b0bar))}
+     out0b = {~((self6 & A0 & b0bar) | (self5 & A0 & B0) | (self4 & a0bar & B0) |
+               (a0bar & b0bar))}
+     out1a = {~((self3 & A1 & b1bar) | (self2 & A1 & B1) | (self3 & a1bar & B1) |
+               (self1 & a1bar & b1bar))}
+     out1b = {~((self6 & A1 & b1bar) | (self5 & A1 & B1) | (self4 & a1bar & B1) |
+               (a1bar & b1bar))}
+     out2a = {~((self3 & A2 & b2bar) | (self2 & A2 & B2) | (self3 & a2bar & B2) |
+               (self1 & a2bar & b2bar))}
+     out2b = {~((self6 & A2 & b2bar) | (self5 & A2 & B2) | (self4 & a2bar & B2) |
+               (a2bar & b2bar))}
+     out3a = {~((self3 & A3 & b3bar) | (self2 & A3 & B3) | (self3 & a3bar & B3) |
+               (self1 & a3bar & b3bar))}
+     out3b = {~((self6 & A3 & b3bar) | (self5 & A3 & B3) | (self4 & a3bar & B3) |
+               (a3bar & b3bar))}
+
+     F0_O = {~((~(selout & Cn)) ^ out0a)}
+     F1_O = {~((~((selout & Cn & out0a) | (selout & out0b))) ^ out1a)}
+     F2_O = {~((~((selout & Cn & out0a & out1a) | (selout & out1a & out0b) | (selout & out1b))) ^ 
+                out2a)}
+     F3_O = {~((~((selout & Cn & out0a & out1a & out2a) | (selout & out1a & out2a & out0b) |
+                (selout & out2a & out1b) | (selout & out2b))) ^ out3a)}
+     PBAR_O = {~(out0a & out1a & out2a & out3a)}
+     GBAR_O = {~((out1a & out2a & out3a & out0b) | (out2a & out3a & out1b) | (out3a & out2b) |
+                 out3b)}

U2DLY PINDLY(6,0,12) DPWR DGND
+     F0_O F1_O F2_O F3_O PBAR_O GBAR_O
+     Cn A0 A1 A2 A3 B0 B1 B2 B3 S0 S1 S2
+     F0 F1 F2 F3 PBAR GBAR
+     IO_S MNTYMXDLY={MNTYMXDLY} IO_LEVEL={IO_LEVEL}
+
+  BOOLEAN:
+     DATA = {CHANGED(A0,0) | CHANGED(A1,0) | CHANGED(A2,0) | CHANGED(A3,0) |
+            CHANGED(B0,0) | CHANGED(B1,0) | CHANGED(B2,0) | CHANGED(B3,0)}
+     SELECT = {CHANGED(S0,0) | CHANGED(S1,0) | CHANGED(S2,0)}
+     CARRY = {CHANGED(Cn,0)}
+
+  PINDLY:
+     F0 F1 F2 F3 = {
+       CASE(
+         SELECT, DELAY(-1,18ns,30ns),
+         DATA & TRN_LH, DELAY(-1,18ns,27ns),
+         DATA & TRN_HL, DELAY(-1,16ns,25ns),
+         CARRY, DELAY(-1,10ns,17ns),
+         DELAY(-1,19ns,31ns))}
+
+     PBAR = {
+       CASE(
+         SELECT, DELAY(-1,18ns,30ns),
+         DATA, DELAY(-1,11ns,18ns),
+         DELAY(-1,19ns,31ns))}
+
+     GBAR = {
+       CASE(
+         SELECT, DELAY(-1,18ns,30ns),
+         DATA, DELAY(-1,12ns,20ns),
+         DELAY(-1,19ns,31ns))}

.ENDS 74S381
*
*
* ----------------------------------------------------------- 74F382 ------
*  Arithmetic Logic Unit
*
*  The Fast TTL Logic Data Book, 1992, Philips Pages 461 to 466
*  bss    4/19/94
*
.SUBCKT 74F382 S0 S1 S2 Cn A0 A1 A2 A3 B0 B1 B2 B3 Cn4 OVR F0 F1 F2 F3
+     optional:  DPWR=$G_DPWR DGND=$G_DGND
+     params:  MNTYMXDLY=0 IO_LEVEL=0

U1LOG LOGICEXP(12,6) DPWR DGND
+     S0 S1 S2 Cn A0 A1 A2 A3 B0 B1 B2 B3
+     Cn4_O OVR_O F0_O F1_O F2_O F3_O
+     D0_GATE IO_F MNTYMXDLY={MNTYMXDLY} IO_LEVEL={IO_LEVEL}
+
+  LOGIC:
+     a0bar = {~A0}
+     a1bar = {~A1}
+     a2bar = {~A2}
+     a3bar = {~A3}
+     b0bar = {~B0}
+     b1bar = {~B1}
+     b2bar = {~B2}
+     b3bar = {~B3}
+     s0bar = {~S0}
+     s1bar = {~S1}
+     s2bar = {~S2}
+
+     self1 = {~(s0bar & S1)}
+     self2 = {~(S0 & S1 & s2bar)}
+     self3 = {~((s0bar & S2) | (s1bar & S2))}
+     self4 = {~(s0bar & s1bar)}
+     self5 = {~(s1bar & s2bar)}
+     selout = {~((s0bar & s1bar) | S2)}
+
+     out0a = {~((a0bar & b0bar & self5 & self1) | (self4 & self1 & self2 & A0 & b0bar) |
+            (self5 & self2 & a0bar & B0))}
+     out0b = {~((a0bar & b0bar & self4 & self2 & self3) | (self5 & self1 & A0 & b0bar) |
+            (self5 & self1 & a0bar & B0) | (self4 & self2 & A0 & B0))}
+     out1a = {~((a1bar & b1bar & self1 & self5) | (self4 & self1 & self2 & A1 & b1bar) |
+            (self5 & self2 & a1bar & B1))}
+     out1b = {~((a1bar & b1bar & self4 & self2 & self3) | (self5 & self1 & A1 & b1bar) |
+            (self5 & self1 & a1bar & B1) | (self4 & self2 & A1 & B1))}
+     out2a = {~((a2bar & b2bar & self1 & self5) | (self4 & self1 & self2 & A2 & b2bar) |
+            (self5 & self2 & a2bar & B2))}
+     out2b = {~((a2bar & b2bar & self4 & self2 & self3) | (self5 & self1 & A2 & b2bar) |
+            (self5 & self1 & a2bar & B2) | (self4 & self2 & A2 & B2))}
+     out3a = {~((a3bar & b3bar & self1 & self5) | (self4 & self1 & self2 & A3 & b3bar) |
+            (self5 & self2 & a3bar & B3))}
+     out3b = {~((a3bar & b3bar & self4 & self2 & self3) | (self5 & self1 & A3 & b3bar) |
+            (self5 & self1 & a3bar & B3) | (self4 & self2 & A3 & B3))}
+
+     F0_O = {(~(Cn & selout) ^ out0b)}
+     f1in = {~((Cn & out0a & selout) | (out0a & out0b & selout))}
+     F1_O = {f1in ^ out1b}
+     f2in = {~((Cn & out0a & out1a & selout) | (out0a & out1a & out0b & selout) |
+            (out1a & out1b & selout))}
+     F2_O = {f2in ^ out2b}
+     f3in = {~((Cn & out0a & out1a & out2a & selout) | (out0a & out1a & out2a & out0b & selout) |
+            (out1a & out2a & out1b & selout) | (out2a & out2b & selout))}
+     F3_O = {f3in ^ out3b}
+     pbar = {~(Cn & out0a & out1a & out2a & out3a)}
+     gbar = {~((out0a & out1a & out2a & out3a & out0b) | (out1a & out2a & out3a & out1b) |
+            (out2a & out3a & out2b) | (out3a & out3b))}
+     OVR_O = {(gbar & pbar) ^ f3in}
+     Cn4_O = {~(pbar & gbar)}

U2DLY PINDLY(6,0,12) DPWR DGND
+     F0_O F1_O F2_O F3_O OVR_O Cn4_O
+     Cn A0 A1 A2 A3 B0 B1 B2 B3 S0 S1 S2
+     F0 F1 F2 F3 OVR Cn4
+     IO_F MNTYMXDLY={MNTYMXDLY} IO_LEVEL={IO_LEVEL}
+
+  BOOLEAN:
+     DATA = {CHANGED(A0,0) | CHANGED(A1,0) | CHANGED(A2,0) | CHANGED(A3,0) |
+            CHANGED(B0,0) | CHANGED(B1,0) | CHANGED(B2,0) | CHANGED(B3,0)}
+     SELECT = {CHANGED(S0,0) | CHANGED(S1,0) | CHANGED(S2,0)}
+     CARRY = {CHANGED(Cn,0)}
+
+  PINDLY:
+     F0 F1 F2 F3 = {
+       CASE(
+         SELECT & TRN_LH, DELAY(5.5ns,9ns,15ns),
+         SELECT & TRN_HL, DELAY(5.5ns,7.5ns,10.5ns),
+         DATA & TRN_LH, DELAY(3.5ns,8ns,13.5ns),
+         DATA & TRN_HL, DELAY(3ns,6ns,10ns),
+         CARRY & TRN_LH, DELAY(3ns,7ns,12ns),
+         CARRY & TRN_HL, DELAY(2.5ns,4.5ns,6.5ns),
+         DELAY(6.5ns,10ns,16ns))}
+
+     OVR = {
+       CASE(
+         SELECT & TRN_LH, DELAY(7ns,10.5ns,14.5ns),
+         SELECT & TRN_HL, DELAY(5ns,8ns,11ns),
+         DATA & TRN_LH, DELAY(6ns,9ns,12.5ns),
+         DATA & TRN_HL, DELAY(3.5ns,6.5ns,9ns),
+         CARRY & TRN_LH, DELAY(4.5ns,9ns,13.5ns),
+         CARRY & TRN_HL, DELAY(3ns,5ns,6.5ns),
+         DELAY(8ns,11.5ns,15.5ns))}
+
+     Cn4 = {
+       CASE(
+         SELECT & TRN_LH, DELAY(7ns,10.5ns,14.5ns),
+         SELECT & TRN_HL, DELAY(5ns,8ns,11ns),
+         DATA & TRN_LH, DELAY(3.5ns,7ns,10.5ns),
+         DATA & TRN_HL, DELAY(3.5ns,6.5ns,9.5ns),
+         CARRY & TRN_LH, DELAY(3ns,4.5ns,6ns),
+         CARRY & TRN_HL, DELAY(3.5ns,5ns,6.5ns),
+         DELAY(8ns,11.5ns,15.5ns))}

.ENDS 74F382
*
*
* ----------------------------------------------------------- 74LS382A ------
*  Arithmetic Logic Unit
*
*  The TTL Logic Data Book, 1988, TI Pages 2-899 to 2-906
*  bss    4/19/94
*
.SUBCKT 74LS382A S0 S1 S2 Cn A0 A1 A2 A3 B0 B1 B2 B3 Cn4 OVR F0 F1 F2 F3
+     optional:  DPWR=$G_DPWR DGND=$G_DGND
+     params:  MNTYMXDLY=0 IO_LEVEL=0

U1LOG LOGICEXP(12,6) DPWR DGND
+     S0 S1 S2 Cn A0 A1 A2 A3 B0 B1 B2 B3
+     Cn4_O OVR_O F0_O F1_O F2_O F3_O
+     D0_GATE IO_LS MNTYMXDLY={MNTYMXDLY} IO_LEVEL={IO_LEVEL}
+
+  LOGIC:
+     a0bar = {~A0}
+     a1bar = {~A1}
+     a2bar = {~A2}
+     a3bar = {~A3}
+     b0bar = {~B0}
+     b1bar = {~B1}
+     b2bar = {~B2}
+     b3bar = {~B3}
+     s0bar = {~S0}
+     s1bar = {~S1}
+     s2bar = {~S2}
+
+     self1 = {~((S0 & s1bar & s2bar) | (s0bar & S1 & s2bar) | (S0 & S1 & S2))}
+     self2 = {~((S0 & s1bar) | (S0 & S2) | (s0bar & S1))}
+     self3 = {~((S0 & S1) | (s1bar & S2))}
+     self4 = {~(S0 & s1bar & s2bar)}
+     self5 = {~(S0 & S1 & s2bar)}
+     self6 = {~(s0bar & S1 & s2bar)}
+     selout = {((S0 & s2bar) | (S1 & s2bar))}
+
+     out0a = {~((self3 & A0 & b0bar) | (self2 & A0 & B0) | (self3 & a0bar & B0) |
+               (self1 & a0bar & b0bar))}
+     out0b = {~((self6 & A0 & b0bar) | (self5 & A0 & B0) | (self4 & a0bar & B0) |
+               (a0bar & b0bar))}
+     out1a = {~((self3 & A1 & b1bar) | (self2 & A1 & B1) | (self3 & a1bar & B1) |
+               (self1 & a1bar & b1bar))}
+     out1b = {~((self6 & A1 & b1bar) | (self5 & A1 & B1) | (self4 & a1bar & B1) |
+               (a1bar & b1bar))}
+     out2a = {~((self3 & A2 & b2bar) | (self2 & A2 & B2) | (self3 & a2bar & B2) |
+               (self1 & a2bar & b2bar))}
+     out2b = {~((self6 & A2 & b2bar) | (self5 & A2 & B2) | (self4 & a2bar & B2) |
+               (a2bar & b2bar))}
+     out3a = {~((self3 & A3 & b3bar) | (self2 & A3 & B3) | (self3 & a3bar & B3) |
+               (self1 & a3bar & b3bar))}
+     out3b = {~((self6 & A3 & b3bar) | (self5 & A3 & B3) | (self4 & a3bar & B3) |
+               (a3bar & b3bar))}
+
+     F0_O = {~((~(selout & Cn)) ^ out0a)}
+     F1_O = {~((~((selout & Cn & out0a) | (selout & out0b))) ^ out1a)}
+     F2_O = {~((~((selout & Cn & out0a & out1a) | (selout & out1a & out0b) | (selout & out1b))) ^ 
+                out2a)}
+     f3in = {~((selout & Cn & out0a & out1a & out2a) | (selout & out1a & out2a & out0b) |
+                (selout & out2a & out1b) | (selout & out2b))}
+     F3_O = {~(f3in ^ out3a)}
+     pbar = {(Cn & out0a & out1a & out2a & out3a)}
+     gbar = {~((out1a & out2a & out3a & out0b) | (out2a & out3a & out1b) | (out3a & out2b) |
+                 out3b | pbar)}
+     OVR_O = {f3in ^ gbar}
+     Cn4_O = {~gbar}

U2DLY PINDLY(6,0,12) DPWR DGND
+     F0_O F1_O F2_O F3_O Cn4_O OVR_O
+     Cn A0 A1 A2 A3 B0 B1 B2 B3 S0 S1 S2
+     F0 F1 F2 F3 Cn4 OVR
+     IO_LS MNTYMXDLY={MNTYMXDLY} IO_LEVEL={IO_LEVEL}
+
+  BOOLEAN:
+     DATA = {CHANGED(A0,0) | CHANGED(A1,0) | CHANGED(A2,0) | CHANGED(A3,0) |
+            CHANGED(B0,0) | CHANGED(B1,0) | CHANGED(B2,0) | CHANGED(B3,0)}
+     SELECT = {CHANGED(S0,0) | CHANGED(S1,0) | CHANGED(S2,0)}
+     CARRY = {CHANGED(Cn,0)}
+
+  PINDLY:
+     F0 F1 F2 F3 = {
+       CASE(
+         SELECT & TRN_LH, DELAY(-1,35ns,53ns),
+         SELECT & TRN_HL, DELAY(-1,34ns,51ns),
+         DATA & TRN_LH, DELAY(-1,20ns,30ns),
+         DATA & TRN_HL, DELAY(-1,15ns,23ns),
+         CARRY & TRN_LH, DELAY(-1,18ns,27ns),
+         CARRY & TRN_HL, DELAY(-1,14ns,21ns),
+         DELAY(-1,36ns,54ns))}
+
+     OVR = {
+       CASE(
+         SELECT & TRN_LH, DELAY(-1,38ns,57ns),
+         SELECT & TRN_HL, DELAY(-1,36ns,54ns),
+         DATA & TRN_LH, DELAY(-1,23ns,35ns),
+         DATA & TRN_HL, DELAY(-1,27ns,41ns),
+         CARRY & TRN_LH, DELAY(-1,10ns,15ns),
+         CARRY & TRN_HL, DELAY(-1,13ns,23ns),
+         DELAY(-1,39ns,58ns))}
+
+     Cn4 = {
+       CASE(
+         SELECT & TRN_LH, DELAY(-1,38ns,57ns),
+         SELECT & TRN_HL, DELAY(-1,36ns,54ns),
+         DATA & TRN_LH, DELAY(-1,28ns,42ns),
+         DATA & TRN_HL, DELAY(-1,26ns,39ns),
+         CARRY & TRN_LH, DELAY(-1,13ns,21ns),
+         CARRY & TRN_HL, DELAY(-1,11ns,20ns),
+         DELAY(-1,39ns,58ns))}

.ENDS 74LS382A

*-------------------------------------------------------------74F385-------

* Quad Serial Adder/Subtractor
* National FAST Advanced Schottky TTL Databook, 1988, pages 4-301 to 4-305
* jat 7/10/96

.SUBCKT 74F385 MRBAR CP A1 A2 A3 A4 B1 B2 B3 B4 S1 S2 S3 S4 F1 F2 F3 F4
+ OPTIONAL: DPWR=$G_DPWR DGND=$G_DGND
+ PARAMS: MNTYMXDLY=0 IO_LEVEL=0

U1 LOGICEXP(22,16) DPWR DGND
+ MRBAR A1 A2 A3 A4 B1 B2 B3 B4 S1 S2 S3 S4 CP C1O C2O C3O C4O C1BARO C2BARO
+ C3BARO C4BARO
+ SET1 SET2 SET3 SET4 CLR1 CLR2 CLR3 CLR4 DC1 DC2 DC3 DC4 DS1 DS2 DS3 DS4
+ D0_GATE IO_F MNTYMXDLY={MNTYMXDLY} IO_LEVEL={IO_LEVEL}
+ LOGIC:
+    SET1 = {~(~MRBAR & S1)}
+    SET2 = {~(~MRBAR & S2)}
+    SET3 = {~(~MRBAR & S3)}
+    SET4 = {~(~MRBAR & S4)}
+    CLR1 = {~(~MRBAR & ~S1)}
+    CLR2 = {~(~MRBAR & ~S2)}
+    CLR3 = {~(~MRBAR & ~S3)}
+    CLR4 = {~(~MRBAR & ~S4)}
+    XNOR1 = {~(~B1 ^ ~S1)}
+    XNOR2 = {~(~B2 ^ ~S2)}
+    XNOR3 = {~(~B3 ^ ~S3)}
+    XNOR4 = {~(~B4 ^ ~S4)}
+    DC1 = {~((~A1 & XNOR1) | (~A1 & C1BARO) | (XNOR1 & C1BARO))}
+    DC2 = {~((~A2 & XNOR2) | (~A2 & C2BARO) | (XNOR2 & C2BARO))}
+    DC3 = {~((~A3 & XNOR3) | (~A3 & C3BARO) | (XNOR3 & C3BARO))}
+    DC4 = {~((~A4 & XNOR4) | (~A4 & C4BARO) | (XNOR4 & C4BARO))}
+    DS1 = {XNOR1 ^ (~(~A1 ^ C1BARO))}
+    DS2 = {XNOR2 ^ (~(~A2 ^ C2BARO))}
+    DS3 = {XNOR3 ^ (~(~A3 ^ C3BARO))}
+    DS4 = {XNOR4 ^ (~(~A4 ^ C4BARO))}

U2 DFF(1) DPWR DGND
+ SET1 CLR1 CP
+ DC1 C1O C1BARO 
+ D0_EFF IO_F MNTYMXDLY={MNTYMXDLY} IO_LEVEL={IO_LEVEL}

U3 DFF(1) DPWR DGND
+ SET2 CLR2 CP
+ DC2 C2O C2BARO 
+ D0_EFF IO_F MNTYMXDLY={MNTYMXDLY} IO_LEVEL={IO_LEVEL}

U4 DFF(1) DPWR DGND
+ SET3 CLR3 CP
+ DC3 C3O C3BARO 
+ D0_EFF IO_F MNTYMXDLY={MNTYMXDLY} IO_LEVEL={IO_LEVEL}

U5 DFF(1) DPWR DGND
+ SET4 CLR4 CP
+ DC4 C4O C4BARO 
+ D0_EFF IO_F MNTYMXDLY={MNTYMXDLY} IO_LEVEL={IO_LEVEL}

U6 DFF(4) DPWR DGND
+ $D_HI MRBAR CP
+ DS1 DS2 DS3 DS4
+ F1O F2O F3O F4O
+ $D_NC $D_NC $D_NC $D_NC
+ D0_EFF IO_F MNTYMXDLY={MNTYMXDLY} IO_LEVEL={IO_LEVEL}

U7 PINDLY(4,0,2) DPWR DGND
+ F1O F2O F3O F4O
+ MRBAR CP
+ F1 F2 F3 F4
+ IO_F MNTYMXDLY={MNTYMXDLY} IO_LEVEL={IO_LEVEL}
+ BOOLEAN:
+    RESET = {CHANGED_HL(MRBAR,0)}
+    EDGE = {CHANGED_LH(CP,0)}
+ PINDLY:
+    F1 F2 F3 F4 = {
+      CASE(
+        RESET & TRN_HL, DELAY(5.5NS,9NS,12NS),
+        EDGE & TRN_LH, DELAY(3.5NS,6NS,8NS),
+        EDGE & TRN_HL, DELAY(4NS,7NS,9NS),
+        DELAY(6.5NS,10NS,13NS))}

U8 CONSTRAINT(14) DPWR DGND
+ A1 A2 A3 A4 B1 B2 B3 B4 S1 S2 S3 S4 CP MRBAR
+ IO_F IO_LEVEL={IO_LEVEL}
+ FREQ:
+   NODE = CP
+   MAXFREQ = 100MEG
+ WIDTH:
+   NODE = CP
+   MIN_LO = 6NS
+   MIN_HI = 6NS
+ WIDTH:
+   NODE = MRBAR
+   MIN_LO = 6NS
+ SETUP_HOLD:
+   CLOCK LH = CP
+   DATA(12) = A1 A2 A3 A4 B1 B2 B3 B4 S1 S2 S3 S4
+   SETUPTIME = 15NS
+ SETUP_HOLD:
+   CLOCK LH = CP
+   DATA(1) = MRBAR
+   SETUPTIME_HI = 8.5NS

.ENDS 74F385

*-------------------------------------------------------------74LS385-------

* Quad Serial Adder/Subtractor
* TI Logic Data Book, 1988, pages 2-913 to 2-915
* jat 8/8/96

.SUBCKT 74LS385 CLRBAR CLK 1A 2A 3A 4A 1B 2B 3B 4B 1S/ABAR 2S/ABAR
+ 3S/ABAR 4S/ABAR 1S 2S 3S 4S
+ OPTIONAL: DPWR=$G_DPWR DGND=$G_DGND
+ PARAMS: MNTYMXDLY=0 IO_LEVEL=0

U1 LOGICEXP(22,16) DPWR DGND
+ CLRBAR 1A 2A 3A 4A 1B 2B 3B 4B 1S/ABAR 2S/ABAR 3S/ABAR 4S/ABAR CLK
+ C1O C2O C3O C4O C1BARO C2BARO C3BARO C4BARO
+ SET1 SET2 SET3 SET4 CLR1 CLR2 CLR3 CLR4 DC1 DC2 DC3 DC4 DS1 DS2 DS3 DS4
+ D0_GATE IO_LS MNTYMXDLY={MNTYMXDLY} IO_LEVEL={IO_LEVEL}
+ LOGIC:
+    SET1 = {~(~CLRBAR & 1S/ABAR)}
+    SET2 = {~(~CLRBAR & 2S/ABAR)}
+    SET3 = {~(~CLRBAR & 3S/ABAR)}
+    SET4 = {~(~CLRBAR & 4S/ABAR)}
+    CLR1 = {~(~CLRBAR & ~1S/ABAR)}
+    CLR2 = {~(~CLRBAR & ~2S/ABAR)}
+    CLR3 = {~(~CLRBAR & ~3S/ABAR)}
+    CLR4 = {~(~CLRBAR & ~4S/ABAR)}
+    XNOR1 = {~(~1B ^ ~1S/ABAR)}
+    XNOR2 = {~(~2B ^ ~2S/ABAR)}
+    XNOR3 = {~(~3B ^ ~3S/ABAR)}
+    XNOR4 = {~(~4B ^ ~4S/ABAR)}
+    DC1 = {~((~1A & XNOR1) | (~1A & C1BARO) | (XNOR1 & C1BARO))}
+    DC2 = {~((~2A & XNOR2) | (~2A & C2BARO) | (XNOR2 & C2BARO))}
+    DC3 = {~((~3A & XNOR3) | (~3A & C3BARO) | (XNOR3 & C3BARO))}
+    DC4 = {~((~4A & XNOR4) | (~4A & C4BARO) | (XNOR4 & C4BARO))}
+    DS1 = {XNOR1 ^ (~(~1A ^ C1BARO))}
+    DS2 = {XNOR2 ^ (~(~2A ^ C2BARO))}
+    DS3 = {XNOR3 ^ (~(~3A ^ C3BARO))}
+    DS4 = {XNOR4 ^ (~(~4A ^ C4BARO))}

U2 DFF(1) DPWR DGND
+ SET1 CLR1 CLK
+ DC1 C1O C1BARO 
+ D0_EFF IO_LS MNTYMXDLY={MNTYMXDLY} IO_LEVEL={IO_LEVEL}

U3 DFF(1) DPWR DGND
+ SET2 CLR2 CLK
+ DC2 C2O C2BARO 
+ D0_EFF IO_LS MNTYMXDLY={MNTYMXDLY} IO_LEVEL={IO_LEVEL}

U4 DFF(1) DPWR DGND
+ SET3 CLR3 CLK
+ DC3 C3O C3BARO 
+ D0_EFF IO_LS MNTYMXDLY={MNTYMXDLY} IO_LEVEL={IO_LEVEL}

U5 DFF(1) DPWR DGND
+ SET4 CLR4 CLK
+ DC4 C4O C4BARO 
+ D0_EFF IO_LS MNTYMXDLY={MNTYMXDLY} IO_LEVEL={IO_LEVEL}

U6 DFF(4) DPWR DGND
+ $D_HI CLRBAR CLK
+ DS1 DS2 DS3 DS4
+ S1O S2O S3O S4O
+ $D_NC $D_NC $D_NC $D_NC
+ D0_EFF IO_LS MNTYMXDLY={MNTYMXDLY} IO_LEVEL={IO_LEVEL}

U7 PINDLY(4,0,2) DPWR DGND
+ S1O S2O S3O S4O
+ CLRBAR CLK
+ 1S 2S 3S 4S
+ IO_LS MNTYMXDLY={MNTYMXDLY} IO_LEVEL={IO_LEVEL}
+ BOOLEAN:
+    RESET = {CHANGED_HL(CLRBAR,0)}
+    EDGE = {CHANGED_LH(CLK,0)}
+ PINDLY:
+    1S 2S 3S 4S = {
+      CASE(
+        RESET & TRN_HL, DELAY(-1,18NS,30NS),
+        EDGE & TRN_LH, DELAY(-1,14NS,22NS),
+        EDGE & TRN_HL, DELAY(-1,18NS,27NS),
+        DELAY(-1,19NS,28NS))}

U8 CONSTRAINT(13) DPWR DGND
+ 1A 2A 3A 4A 1B 2B 3B 4B 1S/ABAR 2S/ABAR 3S/ABAR 4S/ABAR CLK
+ IO_LS IO_LEVEL={IO_LEVEL}
+ FREQ:
+   NODE = CLK
+   MAXFREQ = 30MEG
+ WIDTH:
+   NODE = CLK
+   MIN_LO = 16NS
+   MIN_HI = 16NS
+ SETUP_HOLD:
+   CLOCK LH = CLK
+   DATA(12) = 1A 2A 3A 4A 1B 2B 3B 4B 1S/ABAR 2S/ABAR 3S/ABAR 4S/ABAR
+   SETUPTIME = 10NS
+   HOLDTIME = 3NS

.ENDS 74LS385

*--------------------------------------------------------------74LS386----

* Quad 2 Input Exclusive NOR Gate
* Motorola FAST and LS TTL Logic Data, 1992, pages 5-338 to 5-339
* jat 8/8/96

.SUBCKT 74LS386 A B Y
+ OPTIONAL:  DPWR=$G_DPWR DGND=$G_DGND
+ PARAMS: MNTYMXDLY=0 IO_LEVEL=0

U1 XOR DPWR DGND
+ A B YO
+ D0_GATE IO_LS MNTYMXDLY={MNTYMXDLY} IO_LEVEL={IO_LEVEL}

U2 PINDLY(1,0,2) DPWR DGND
+ YO
+ A B
+ Y
+ IO_LS MNTYMXDLY={MNTYMXDLY} IO_LEVEL={IO_LEVEL}
+ PINDLY:
+  Y = {
+   CASE(
+    CHANGED(A,0) & B=='1 & TRN_LH, DELAY(-1,20NS,30NS),
+    CHANGED(B,0) & A=='1 & TRN_LH, DELAY(-1,20NS,30NS),
+    CHANGED(A,0) & B=='1 & TRN_HL, DELAY(-1,13NS,22NS),
+    CHANGED(B,0) & A=='1 & TRN_HL, DELAY(-1,13NS,22NS),
+    CHANGED(A,0) & B=='0 & TRN_LH, DELAY(-1,12NS,23NS),
+    CHANGED(B,0) & A=='0 & TRN_LH, DELAY(-1,12NS,23NS),
+    CHANGED(A,0) & B=='0 & TRN_HL, DELAY(-1,10NS,17NS),
+    CHANGED(B,0) & A=='0 & TRN_HL, DELAY(-1,10NS,17NS),
+    DELAY(-1,21NS,31NS))}

.ENDS 74LS386

* ----------------------------------------------------------- 74HC386 ------
*  Quad 2-Input Exclusive-Or Gates
*
*  The High-Speed CMOS Logic Data Book, 1989, TI Pages 2-437 to 2-438
*  bss    4/19/94
*
.SUBCKT 74HC386 1A 1B 1Y
+     optional:  DPWR=$G_DPWR DGND=$G_DGND
+     params:  MNTYMXDLY=0 IO_LEVEL=0

U1 xor DPWR DGND
+     1A 1B 1Y
+     DLY_HC386 IO_HC MNTYMXDLY={MNTYMXDLY} IO_LEVEL={IO_LEVEL}

.model DLY_HC386 ugate (tplhTY=12ns tplhMX=20ns tphlTY=12ns tphlMX=20ns)

.ENDS 74HC386
*
*
* ----------------------------------------------------------- 74LS386A ------
*  Quad 2-Input Exclusive-Or Gates
*
*  The TTL Logic Data Book, 1988, TI Pages 2-917 to 2-918
*  bss    4/19/94
*
.SUBCKT 74LS386A 1A 1B 1Y
+     optional:  DPWR=$G_DPWR DGND=$G_DGND
+     params:  MNTYMXDLY=0 IO_LEVEL=0

U1 xor DPWR DGND
+     1A 1B 1Y_O
+     D0_GATE IO_LS MNTYMXDLY={MNTYMXDLY} IO_LEVEL={IO_LEVEL}

U2DLY PINDLY(1,0,2) DPWR DGND
+     1Y_O
+     1A 1B
+     1Y
+     IO_LS MNTYMXDLY={MNTYMXDLY} IO_LEVEL={IO_LEVEL}
+
+  BOOLEAN:
+     ACH = {CHANGED(1A,0)}
+     BCH = {CHANGED(1B,0)}
+
+  PINDLY:
+     1Y = {
+       CASE(
+         ACH & 1B=='0 & TRN_LH, DELAY(-1,12ns,23ns),
+         BCH & 1A=='0 & TRN_LH, DELAY(-1,12ns,23ns),
+         ACH & 1B=='0 & TRN_HL, DELAY(-1,10ns,17ns),
+         BCH & 1A=='0 & TRN_HL, DELAY(-1,10ns,17ns),
+         ACH & 1B=='1 & TRN_LH, DELAY(-1,20ns,30ns),
+         BCH & 1A=='1 & TRN_LH, DELAY(-1,20ns,30ns),
+         ACH & 1B=='1 & TRN_HL, DELAY(-1,13ns,22ns),
+         BCH & 1A=='1 & TRN_HL, DELAY(-1,13ns,22ns),
+         DELAY(-1,21ns,31ns))}

.ENDS 74LS386A
*
*
* ----------------------------------------------------------- 74390 ------
*  Dual 4-Bit Decade Counters
*
*  The TTL Logic Data Book, 1988, TI Pages 2-919 to 2-927
*  bss    4/19/94
*
.SUBCKT 74390 1CKA 1CKB 1CLR 1QA 1QB 1QC 1QD
+     optional:  DPWR=$G_DPWR DGND=$G_DGND
+     params:  MNTYMXDLY=0 IO_LEVEL=0

U1 jkff(1) DPWR DGND
+     $D_HI CLEAR 1CKA $D_HI $D_HI 1QA_O $D_NC
+     D0_EFF IO_STD MNTYMXDLY={MNTYMXDLY} IO_LEVEL={IO_LEVEL}

U2 jkff(1) DPWR DGND
+     $D_HI CLEAR CLKB $D_HI $D_HI 1QB_O 1QBBAR
+     D0_EFF IO_STD MNTYMXDLY={MNTYMXDLY} IO_LEVEL={IO_LEVEL}

U3 jkff(1) DPWR DGND
+     $D_HI CLEAR 1QB_O $D_HI $D_HI 1QC_O 1QCBAR
+     D0_EFF IO_STD MNTYMXDLY={MNTYMXDLY} IO_LEVEL={IO_LEVEL}

U4 jkff(1) DPWR DGND
+     $D_HI CLEAR CLKD $D_HI $D_HI 1QD_O 1QDBAR
+     D0_EFF IO_STD MNTYMXDLY={MNTYMXDLY} IO_LEVEL={IO_LEVEL}

U5LOG LOGICEXP(5,3) DPWR DGND
+     1CKB 1CLR 1QDBAR 1QBBAR 1QCBAR
+     CLKB CLKD CLEAR
+     D0_GATE IO_STD MNTYMXDLY={MNTYMXDLY} IO_LEVEL={IO_LEVEL}
+
+  LOGIC:
+     CLEAR = {~1CLR}
+     CLKB = {1CKB & 1QDBAR}