*  Digital Library: 74F604 to

*-------------------------------------------------------------74F604-----

* Dual Octal Latch (Tri-State)
* Philips FAST TTL Logic Series Data Handbook, 1992, pages 609 to 613
* jat 7/17/96

.SUBCKT 74F604 A/BBAR LEBAR A0 A1 A2 A3 A4 A5 A6 A7 B0 B1 B2 B3 B4 B5 B6 B7
+ Q0 Q1 Q2 Q3 Q4 Q5 Q6 Q7
+ OPTIONAL: DPWR=$G_DPWR DGND=$G_DGND
+ PARAMS: MNTYMXDLY=0 IO_LEVEL=0

U1 LOGICEXP(18,9) DPWR DGND
+ A/BBAR QA0 QA1 QA2 QA3 QA4 QA5 QA6 QA7 QB0 QB1 QB2 QB3 QB4 QB5 QB6 QB7 LEBAR
+ Q0O Q1O Q2O Q3O Q4O Q5O Q6O Q7O LE
+ D0_GATE IO_F MNTYMXDLY={MNTYMXDLY} IO_LEVEL={IO_LEVEL}
+ LOGIC:
+    Q0O = {(QA0 & A/BBAR) | (QB0 & ~A/BBAR)}
+    Q1O = {(QA1 & A/BBAR) | (QB1 & ~A/BBAR)}
+    Q2O = {(QA2 & A/BBAR) | (QB2 & ~A/BBAR)}
+    Q3O = {(QA3 & A/BBAR) | (QB3 & ~A/BBAR)}
+    Q4O = {(QA4 & A/BBAR) | (QB4 & ~A/BBAR)}
+    Q5O = {(QA5 & A/BBAR) | (QB5 & ~A/BBAR)}
+    Q6O = {(QA6 & A/BBAR) | (QB6 & ~A/BBAR)}
+    Q7O = {(QA7 & A/BBAR) | (QB7 & ~A/BBAR)}
+    LE = {~LEBAR}

U2 DLTCH(16) DPWR DGND
+ $D_HI $D_HI LE
+ A0 A1 A2 A3 A4 A5 A6 A7 B0 B1 B2 B3 B4 B5 B6 B7
+ QA0 QA1 QA2 QA3 QA4 QA5 QA6 QA7 QB0 QB1 QB2 QB3 QB4 QB5 QB6 QB7
+ $D_NC $D_NC $D_NC $D_NC $D_NC $D_NC $D_NC $D_NC $D_NC $D_NC $D_NC $D_NC
+ $D_NC $D_NC $D_NC $D_NC
+ D0_GFF IO_F MNTYMXDLY={MNTYMXDLY} IO_LEVEL={IO_LEVEL}

U3 PINDLY(8,1,1) DPWR DGND
+ Q0O Q1O Q2O Q3O Q4O Q5O Q6O Q7O
+ LEBAR
+ A/BBAR
+ Q0 Q1 Q2 Q3 Q4 Q5 Q6 Q7
+ IO_F MNTYMXDLY={MNTYMXDLY} IO_LEVEL={IO_LEVEL}
+ TRISTATE:
+  ENABLE HI = LEBAR
+    Q0 Q1 Q2 Q3 Q4 Q5 Q6 Q7 = {
+      CASE(
+        TRN_Z$, DELAY(5NS,7NS,9.5NS),
+        TRN_$Z, DELAY(5NS,7NS,9.5NS),
+        TRN_LH & (CHANGED(A/BBAR,0)) & (A/BBAR=='0), DELAY(5NS,7NS,9NS),
+        TRN_HL & (CHANGED(A/BBAR,0)) & (A/BBAR=='0), DELAY(6NS,8.5NS,10.5NS),
+        TRN_LH & (CHANGED(A/BBAR,0)) & (A/BBAR=='1), DELAY(6NS,8NS,10NS),
+        TRN_HL & (CHANGED(A/BBAR,0)) & (A/BBAR=='1), DELAY(4NS,6.5NS,8.5NS),
+        DELAY(7NS,9.5NS,11.5NS))}

U4 CONSTRAINT(17) DPWR DGND
+ A0 A1 A2 A3 A4 A5 A6 A7 B0 B1 B2 B3 B4 B5 B6 B7 LEBAR
+ IO_F IO_LEVEL={IO_LEVEL}
+ WIDTH:
+   NODE = LEBAR
+   MIN_LO = 5NS
+ SETUP_HOLD:
+   CLOCK LH = LEBAR
+   DATA(16) = A0 A1 A2 A3 A4 A5 A6 A7 B0 B1 B2 B3 B4 B5 B6 B7
+   SETUPTIME_HI = 1NS
+   SETUPTIME_LO = 2NS
+   HOLDTIME_LO = 1NS

.ENDS 74F604

* ----------------------------------------------------------- 74LS604 ------
*  Octal 2-Input Multiplexed Latches With 3-State Outputs
*
*  The TTL Logic Data Book, 1988, TI Pages 2-1015 to 2-1019
*  bss    5/10/94
*
.SUBCKT 74LS604 A/BBAR CLK A1 A2 A3 A4 A5 A6 A7 A8 B1 B2 B3 B4 B5 B6 B7 B8
+     Y1 Y2 Y3 Y4 Y5 Y6 Y7 Y8
+     optional:  DPWR=$G_DPWR DGND=$G_DGND
+     params:  MNTYMXDLY=0 IO_LEVEL=0

U1 bufa(2) DPWR DGND
+     A/BBAR CLK A/B CLKBUF
+     D0_GATE IO_LS_ST MNTYMXDLY={MNTYMXDLY} IO_LEVEL={IO_LEVEL}

U2 dff(16) DPWR DGND
+     $D_HI $D_HI CLK
+     A1 A2 A3 A4 A5 A6 A7 A8 B1 B2 B3 B4 B5 B6 B7 B8
+     $D_NC $D_NC $D_NC $D_NC $D_NC $D_NC $D_NC $D_NC
+     $D_NC $D_NC $D_NC $D_NC $D_NC $D_NC $D_NC $D_NC
+     QA1B QA2B QA3B QA4B QA5B QA6B QA7B QA8B
+     QB1B QB2B QB3B QB4B QB5B QB6B QB7B QB8B
+     D0_EFF IO_LS MNTYMXDLY={MNTYMXDLY} IO_LEVEL={IO_LEVEL}

U3LOG LOGICEXP(17,8) DPWR DGND
+     QA1B QA2B QA3B QA4B QA5B QA6B QA7B QA8B
+     QB1B QB2B QB3B QB4B QB5B QB6B QB7B QB8B A/B
+     Y1_O Y2_O Y3_O Y4_O Y5_O Y6_O Y7_O Y8_O
+     D0_GATE IO_LS MNTYMXDLY={MNTYMXDLY} IO_LEVEL={IO_LEVEL}
+
+  LOGIC:
+     bup = {~A/B}
+     Y1_O = {~((QA1B & A/B) | (QB1B & bup))}
+     Y2_O = {~((QA2B & A/B) | (QB2B & bup))}
+     Y3_O = {~((QA3B & A/B) | (QB3B & bup))}
+     Y4_O = {~((QA4B & A/B) | (QB4B & bup))}
+     Y5_O = {~((QA5B & A/B) | (QB5B & bup))}
+     Y6_O = {~((QA6B & A/B) | (QB6B & bup))}
+     Y7_O = {~((QA7B & A/B) | (QB7B & bup))}
+     Y8_O = {~((QA8B & A/B) | (QB8B & bup))}

U4DLY PINDLY(8,1,17) DPWR DGND
+     Y1_O Y2_O Y3_O Y4_O Y5_O Y6_O Y7_O Y8_O
+     CLKBUF
+     A/BBAR A1 A2 A3 A4 A5 A6 A7 A8 B1 B2 B3 B4 B5 B6 B7 B8
+     Y1 Y2 Y3 Y4 Y5 Y6 Y7 Y8
+     IO_LS MNTYMXDLY={MNTYMXDLY} IO_LEVEL={IO_LEVEL}
+
+  BOOLEAN:
+     DATAA = {CHANGED_LH(A/BBAR,0)}
+     DATAB = {CHANGED_HL(A/BBAR,0)}
+
+  TRISTATE:
+     ENABLE HI=CLKBUF
+     Y1 = {
+       CASE(
+         DATAA & A1=='1 & TRN_LH, DELAY(-1,15ns,25ns),
+         DATAB & B1=='0 & TRN_HL, DELAY(-1,23ns,35ns),
+         DATAA & A1=='0 & TRN_HL, DELAY(-1,19ns,30ns),
+         DATAB & B1=='1 & TRN_LH, DELAY(-1,31ns,45ns),
+         TRN_ZH, DELAY(-1,19ns,30ns),
+         TRN_ZL, DELAY(-1,28ns,40ns),
+         TRN_HZ, DELAY(-1,20ns,30ns),
+         TRN_LZ, DELAY(-1,15ns,25ns),
+         DELAY(-1,32ns,46ns))}
+
+     Y2 = {
+       CASE(
+         DATAA & A2=='1 & TRN_LH, DELAY(-1,15ns,25ns),
+         DATAB & B2=='0 & TRN_HL, DELAY(-1,23ns,35ns),
+         DATAA & A2=='0 & TRN_HL, DELAY(-1,19ns,30ns),
+         DATAB & B2=='1 & TRN_LH, DELAY(-1,31ns,45ns),
+         TRN_ZH, DELAY(-1,19ns,30ns),
+         TRN_ZL, DELAY(-1,28ns,40ns),
+         TRN_HZ, DELAY(-1,20ns,30ns),
+         TRN_LZ, DELAY(-1,15ns,25ns),
+         DELAY(-1,32ns,46ns))}
+
+     Y3 = {
+       CASE(
+         DATAA & A3=='1 & TRN_LH, DELAY(-1,15ns,25ns),
+         DATAB & B3=='0 & TRN_HL, DELAY(-1,23ns,35ns),
+         DATAA & A3=='0 & TRN_HL, DELAY(-1,19ns,30ns),
+         DATAB & B3=='1 & TRN_LH, DELAY(-1,31ns,45ns),
+         TRN_ZH, DELAY(-1,19ns,30ns),
+         TRN_ZL, DELAY(-1,28ns,40ns),
+         TRN_HZ, DELAY(-1,20ns,30ns),
+         TRN_LZ, DELAY(-1,15ns,25ns),
+         DELAY(-1,32ns,46ns))}
+
+     Y4 = {
+       CASE(
+         DATAA & A4=='1 & TRN_LH, DELAY(-1,15ns,25ns),
+         DATAB & B4=='0 & TRN_HL, DELAY(-1,23ns,35ns),
+         DATAA & A4=='0 & TRN_HL, DELAY(-1,19ns,30ns),
+         DATAB & B4=='1 & TRN_LH, DELAY(-1,31ns,45ns),
+         TRN_ZH, DELAY(-1,19ns,30ns),
+         TRN_ZL, DELAY(-1,28ns,40ns),
+         TRN_HZ, DELAY(-1,20ns,30ns),
+         TRN_LZ, DELAY(-1,15ns,25ns),
+         DELAY(-1,32ns,46ns))}
+
+     Y5 = {
+       CASE(
+         DATAA & A5=='1 & TRN_LH, DELAY(-1,15ns,25ns),
+         DATAB & B5=='0 & TRN_HL, DELAY(-1,23ns,35ns),
+         DATAA & A5=='0 & TRN_HL, DELAY(-1,19ns,30ns),
+         DATAB & B5=='1 & TRN_LH, DELAY(-1,31ns,45ns),
+         TRN_ZH, DELAY(-1,19ns,30ns),
+         TRN_ZL, DELAY(-1,28ns,40ns),
+         TRN_HZ, DELAY(-1,20ns,30ns),
+         TRN_LZ, DELAY(-1,15ns,25ns),
+         DELAY(-1,32ns,46ns))}
+
+     Y6 = {
+       CASE(
+         DATAA & A6=='1 & TRN_LH, DELAY(-1,15ns,25ns),
+         DATAB & B6=='0 & TRN_HL, DELAY(-1,23ns,35ns),
+         DATAA & A6=='0 & TRN_HL, DELAY(-1,19ns,30ns),
+         DATAB & B6=='1 & TRN_LH, DELAY(-1,31ns,45ns),
+         TRN_ZH, DELAY(-1,19ns,30ns),
+         TRN_ZL, DELAY(-1,28ns,40ns),
+         TRN_HZ, DELAY(-1,20ns,30ns),
+         TRN_LZ, DELAY(-1,15ns,25ns),
+         DELAY(-1,32ns,46ns))}
+
+     Y7 = {
+       CASE(
+         DATAA & A7=='1 & TRN_LH, DELAY(-1,15ns,25ns),
+         DATAB & B7=='0 & TRN_HL, DELAY(-1,23ns,35ns),
+         DATAA & A7=='0 & TRN_HL, DELAY(-1,19ns,30ns),
+         DATAB & B7=='1 & TRN_LH, DELAY(-1,31ns,45ns),
+         TRN_ZH, DELAY(-1,19ns,30ns),
+         TRN_ZL, DELAY(-1,28ns,40ns),
+         TRN_HZ, DELAY(-1,20ns,30ns),
+         TRN_LZ, DELAY(-1,15ns,25ns),
+         DELAY(-1,32ns,46ns))}
+
+     Y8 = {
+       CASE(
+         DATAA & A8=='1 & TRN_LH, DELAY(-1,15ns,25ns),
+         DATAB & B8=='0 & TRN_HL, DELAY(-1,23ns,35ns),
+         DATAA & A8=='0 & TRN_HL, DELAY(-1,19ns,30ns),
+         DATAB & B8=='1 & TRN_LH, DELAY(-1,31ns,45ns),
+         TRN_ZH, DELAY(-1,19ns,30ns),
+         TRN_ZL, DELAY(-1,28ns,40ns),
+         TRN_HZ, DELAY(-1,20ns,30ns),
+         TRN_LZ, DELAY(-1,15ns,25ns),
+         DELAY(-1,32ns,46ns))}

U5CON CONSTRAINT(17) DPWR DGND
+     CLK A1 A2 A3 A4 A5 A6 A7 A8 B1 B2 B3 B4 B5 B6 B7 B8
+     IO_LS IO_LEVEL={IO_LEVEL}
+
+  WIDTH:
+     NODE=CLK
+     MIN_HI=20ns
+     MIN_LO=20ns
+
+  SETUP_HOLD:
+     CLOCK LH=CLK
+     DATA(16)=A1 A2 A3 A4 A5 A6 A7 A8 B1 B2 B3 B4 B5 B6 B7 B8
+     SETUPTIME=20ns

.ENDS 74LS604
*
*
* ----------------------------------------------------------- 74LS605 ------
*  Octal 2-Input Multiplexed Latches With Open Collector Outputs
*
*  The TTL Logic Data Book, Vol. 2, 1985, TI Pages 3-1175 to 3-1179
*  bss    5/10/94
*
.SUBCKT 74LS605 A/BBAR CLK A1 A2 A3 A4 A5 A6 A7 A8 B1 B2 B3 B4 B5 B6 B7 B8
+     Y1 Y2 Y3 Y4 Y5 Y6 Y7 Y8
+     optional:  DPWR=$G_DPWR DGND=$G_DGND
+     params:  MNTYMXDLY=0 IO_LEVEL=0

U1 bufa(2) DPWR DGND
+     A/BBAR CLK A/B CLKBUF
+     D0_GATE IO_LS_ST MNTYMXDLY={MNTYMXDLY} IO_LEVEL={IO_LEVEL}

U2 dff(16) DPWR DGND
+     $D_HI $D_HI CLK
+     A1 A2 A3 A4 A5 A6 A7 A8 B1 B2 B3 B4 B5 B6 B7 B8
+     $D_NC $D_NC $D_NC $D_NC $D_NC $D_NC $D_NC $D_NC
+     $D_NC $D_NC $D_NC $D_NC $D_NC $D_NC $D_NC $D_NC
+     QA1B QA2B QA3B QA4B QA5B QA6B QA7B QA8B
+     QB1B QB2B QB3B QB4B QB5B QB6B QB7B QB8B
+     D0_EFF IO_LS MNTYMXDLY={MNTYMXDLY} IO_LEVEL={IO_LEVEL}

U3LOG LOGICEXP(18,8) DPWR DGND
+     QA1B QA2B QA3B QA4B QA5B QA6B QA7B QA8B CLKBUF
+     QB1B QB2B QB3B QB4B QB5B QB6B QB7B QB8B A/B
+     Y1_O Y2_O Y3_O Y4_O Y5_O Y6_O Y7_O Y8_O
+     D0_GATE IO_LS MNTYMXDLY={MNTYMXDLY} IO_LEVEL={IO_LEVEL}
+
+  LOGIC:
+     bup = {~A/B}
+     Y1_OC = {~((QA1B & A/B) | (QB1B & bup))}
+     Y2_OC = {~((QA2B & A/B) | (QB2B & bup))}
+     Y3_OC = {~((QA3B & A/B) | (QB3B & bup))}
+     Y4_OC = {~((QA4B & A/B) | (QB4B & bup))}
+     Y5_OC = {~((QA5B & A/B) | (QB5B & bup))}
+     Y6_OC = {~((QA6B & A/B) | (QB6B & bup))}
+     Y7_OC = {~((QA7B & A/B) | (QB7B & bup))}
+     Y8_OC = {~((QA8B & A/B) | (QB8B & bup))}
+     Y1_O = {(~CLKBUF) | Y1_OC}
+     Y2_O = {(~CLKBUF) | Y2_OC}
+     Y3_O = {(~CLKBUF) | Y3_OC}
+     Y4_O = {(~CLKBUF) | Y4_OC}
+     Y5_O = {(~CLKBUF) | Y5_OC}
+     Y6_O = {(~CLKBUF) | Y6_OC}
+     Y7_O = {(~CLKBUF) | Y7_OC}
+     Y8_O = {(~CLKBUF) | Y8_OC}

U4DLY PINDLY(8,0,18) DPWR DGND
+     Y1_O Y2_O Y3_O Y4_O Y5_O Y6_O Y7_O Y8_O
+     A/BBAR A1 A2 A3 A4 A5 A6 A7 A8 B1 B2 B3 B4 B5 B6 B7 B8 CLK
+     Y1 Y2 Y3 Y4 Y5 Y6 Y7 Y8
+     IO_LS_OC MNTYMXDLY={MNTYMXDLY} IO_LEVEL={IO_LEVEL}
+
+  BOOLEAN:
+     DATAA = {CHANGED_LH(A/BBAR,0)}
+     DATAB = {CHANGED_HL(A/BBAR,0)}
+     CLOCK = {CHANGED(CLK,0)}
+
+  PINDLY:
+     Y1 = {
+       CASE(
+         DATAA & A1=='1 & TRN_LH, DELAY(-1,28ns,40ns),
+         DATAB & B1=='0 & TRN_HL, DELAY(-1,28ns,40ns),
+         DATAA & A1=='0 & TRN_HL, DELAY(-1,25ns,40ns),
+         DATAB & B1=='1 & TRN_LH, DELAY(-1,39ns,60ns),
+         CLOCK & TRN_LH, DELAY(-1,27ns,40ns),
+         CLOCK & TRN_HL, DELAY(-1,25ns,40ns),
+         DELAY(-1,40ns,61ns))}
+
+     Y2 = {
+       CASE(
+         DATAA & A2=='1 & TRN_LH, DELAY(-1,28ns,40ns),
+         DATAB & B2=='0 & TRN_HL, DELAY(-1,28ns,40ns),
+         DATAA & A2=='0 & TRN_HL, DELAY(-1,25ns,40ns),
+         DATAB & B2=='1 & TRN_LH, DELAY(-1,39ns,60ns),
+         CLOCK & TRN_LH, DELAY(-1,27ns,40ns),
+         CLOCK & TRN_HL, DELAY(-1,25ns,40ns),
+         DELAY(-1,40ns,61ns))}
+
+     Y3 = {
+       CASE(
+         DATAA & A3=='1 & TRN_LH, DELAY(-1,28ns,40ns),
+         DATAB & B3=='0 & TRN_HL, DELAY(-1,28ns,40ns),
+         DATAA & A3=='0 & TRN_HL, DELAY(-1,25ns,40ns),
+         DATAB & B3=='1 & TRN_LH, DELAY(-1,39ns,60ns),
+         CLOCK & TRN_LH, DELAY(-1,27ns,40ns),
+         CLOCK & TRN_HL, DELAY(-1,25ns,40ns),
+         DELAY(-1,40ns,61ns))}
+
+     Y4 = {
+       CASE(
+         DATAA & A4=='1 & TRN_LH, DELAY(-1,28ns,40ns),
+         DATAB & B4=='0 & TRN_HL, DELAY(-1,28ns,40ns),
+         DATAA & A4=='0 & TRN_HL, DELAY(-1,25ns,40ns),
+         DATAB & B4=='1 & TRN_LH, DELAY(-1,39ns,60ns),
+         CLOCK & TRN_LH, DELAY(-1,27ns,40ns),
+         CLOCK & TRN_HL, DELAY(-1,25ns,40ns),
+         DELAY(-1,40ns,61ns))}
+
+     Y5 = {
+       CASE(
+         DATAA & A5=='1 & TRN_LH, DELAY(-1,28ns,40ns),
+         DATAB & B5=='0 & TRN_HL, DELAY(-1,28ns,40ns),
+         DATAA & A5=='0 & TRN_HL, DELAY(-1,25ns,40ns),
+         DATAB & B5=='1 & TRN_LH, DELAY(-1,39ns,60ns),
+         CLOCK & TRN_LH, DELAY(-1,27ns,40ns),
+         CLOCK & TRN_HL, DELAY(-1,25ns,40ns),
+         DELAY(-1,40ns,61ns))}
+
+     Y6 = {
+       CASE(
+         DATAA & A6=='1 & TRN_LH, DELAY(-1,28ns,40ns),
+         DATAB & B6=='0 & TRN_HL, DELAY(-1,28ns,40ns),
+         DATAA & A6=='0 & TRN_HL, DELAY(-1,25ns,40ns),
+         DATAB & B6=='1 & TRN_LH, DELAY(-1,39ns,60ns),
+         CLOCK & TRN_LH, DELAY(-1,27ns,40ns),
+         CLOCK & TRN_HL, DELAY(-1,25ns,40ns),
+         DELAY(-1,40ns,61ns))}
+
+     Y7 = {
+       CASE(
+         DATAA & A7=='1 & TRN_LH, DELAY(-1,28ns,40ns),
+         DATAB & B7=='0 & TRN_HL, DELAY(-1,28ns,40ns),
+         DATAA & A7=='0 & TRN_HL, DELAY(-1,25ns,40ns),
+         DATAB & B7=='1 & TRN_LH, DELAY(-1,39ns,60ns),
+         CLOCK & TRN_LH, DELAY(-1,27ns,40ns),
+         CLOCK & TRN_HL, DELAY(-1,25ns,40ns),
+         DELAY(-1,40ns,61ns))}
+
+     Y8 = {
+       CASE(
+         DATAA & A8=='1 & TRN_LH, DELAY(-1,28ns,40ns),
+         DATAB & B8=='0 & TRN_HL, DELAY(-1,28ns,40ns),
+         DATAA & A8=='0 & TRN_HL, DELAY(-1,25ns,40ns),
+         DATAB & B8=='1 & TRN_LH, DELAY(-1,39ns,60ns),
+         CLOCK & TRN_LH, DELAY(-1,27ns,40ns),
+         CLOCK & TRN_HL, DELAY(-1,25ns,40ns),
+         DELAY(-1,40ns,61ns))}

U5CON CONSTRAINT(17) DPWR DGND
+     CLK A1 A2 A3 A4 A5 A6 A7 A8 B1 B2 B3 B4 B5 B6 B7 B8
+     IO_LS IO_LEVEL={IO_LEVEL}
+
+  WIDTH:
+     NODE=CLK
+     MIN_HI=20ns
+     MIN_LO=20ns
+
+  SETUP_HOLD:
+     CLOCK LH=CLK
+     DATA(16)=A1 A2 A3 A4 A5 A6 A7 A8 B1 B2 B3 B4 B5 B6 B7 B8
+     SETUPTIME=20ns

.ENDS 74LS605
*
*
* ----------------------------------------------------------- 74LS606 ------
*  Octal 2-Input Multiplexed Latches With 3-State Outputs
*
*  The TTL Logic Data Book, 1988, TI Pages 2-1015 to 2-1019
*  bss    5/10/94
*
.SUBCKT 74LS606 A/BBAR CLK A1 A2 A3 A4 A5 A6 A7 A8 B1 B2 B3 B4 B5 B6 B7 B8
+     Y1 Y2 Y3 Y4 Y5 Y6 Y7 Y8
+     optional:  DPWR=$G_DPWR DGND=$G_DGND
+     params:  MNTYMXDLY=0 IO_LEVEL=0

U1 bufa(2) DPWR DGND
+     A/BBAR CLK A/B CLKBUF
+     D0_GATE IO_LS_ST MNTYMXDLY={MNTYMXDLY} IO_LEVEL={IO_LEVEL}

U2 dff(16) DPWR DGND
+     $D_HI $D_HI CLK
+     A1 A2 A3 A4 A5 A6 A7 A8 B1 B2 B3 B4 B5 B6 B7 B8
+     $D_NC $D_NC $D_NC $D_NC $D_NC $D_NC $D_NC $D_NC
+     $D_NC $D_NC $D_NC $D_NC $D_NC $D_NC $D_NC $D_NC
+     QA1B QA2B QA3B QA4B QA5B QA6B QA7B QA8B
+     QB1B QB2B QB3B QB4B QB5B QB6B QB7B QB8B
+     D0_EFF IO_LS MNTYMXDLY={MNTYMXDLY} IO_LEVEL={IO_LEVEL}

U3LOG LOGICEXP(17,8) DPWR DGND
+     QA1B QA2B QA3B QA4B QA5B QA6B QA7B QA8B
+     QB1B QB2B QB3B QB4B QB5B QB6B QB7B QB8B A/B
+     Y1_O Y2_O Y3_O Y4_O Y5_O Y6_O Y7_O Y8_O
+     D0_GATE IO_LS MNTYMXDLY={MNTYMXDLY} IO_LEVEL={IO_LEVEL}
+
+  LOGIC:
+     bup = {~A/B}
+     Y1_O = {~((QA1B & A/B) | (QB1B & bup))}
+     Y2_O = {~((QA2B & A/B) | (QB2B & bup))}
+     Y3_O = {~((QA3B & A/B) | (QB3B & bup))}
+     Y4_O = {~((QA4B & A/B) | (QB4B & bup))}
+     Y5_O = {~((QA5B & A/B) | (QB5B & bup))}
+     Y6_O = {~((QA6B & A/B) | (QB6B & bup))}
+     Y7_O = {~((QA7B & A/B) | (QB7B & bup))}
+     Y8_O = {~((QA8B & A/B) | (QB8B & bup))}

U4DLY PINDLY(8,1,17) DPWR DGND
+     Y1_O Y2_O Y3_O Y4_O Y5_O Y6_O Y7_O Y8_O
+     CLKBUF
+     A/BBAR A1 A2 A3 A4 A5 A6 A7 A8 B1 B2 B3 B4 B5 B6 B7 B8
+     Y1 Y2 Y3 Y4 Y5 Y6 Y7 Y8
+     IO_LS MNTYMXDLY={MNTYMXDLY} IO_LEVEL={IO_LEVEL}
+
+  BOOLEAN:
+     DATAA = {CHANGED_LH(A/BBAR,0)}
+     DATAB = {CHANGED_HL(A/BBAR,0)}
+
+  TRISTATE:
+     ENABLE HI=CLKBUF
+     Y1 = {
+       CASE(
+         DATAA & A1=='1 & TRN_LH, DELAY(-1,36ns,50ns),
+         DATAB & B1=='0 & TRN_HL, DELAY(-1,16ns,30ns),
+         DATAA & A1=='0 & TRN_HL, DELAY(-1,22ns,35ns),
+         DATAB & B1=='1 & TRN_LH, DELAY(-1,22ns,35ns),
+         TRN_ZH, DELAY(-1,27ns,40ns),
+         TRN_ZL, DELAY(-1,35ns,50ns),
+         TRN_HZ, DELAY(-1,20ns,30ns),
+         TRN_LZ, DELAY(-1,15ns,25ns),
+         DELAY(-1,37ns,51ns))}
+
+     Y2 = {
+       CASE(
+         DATAA & A2=='1 & TRN_LH, DELAY(-1,36ns,50ns),
+         DATAB & B2=='0 & TRN_HL, DELAY(-1,16ns,30ns),
+         DATAA & A2=='0 & TRN_HL, DELAY(-1,22ns,35ns),
+         DATAB & B2=='1 & TRN_LH, DELAY(-1,22ns,35ns),
+         TRN_ZH, DELAY(-1,27ns,40ns),
+         TRN_ZL, DELAY(-1,35ns,50ns),
+         TRN_HZ, DELAY(-1,20ns,30ns),
+         TRN_LZ, DELAY(-1,15ns,25ns),
+         DELAY(-1,37ns,51ns))}
+
+     Y3 = {
+       CASE(
+         DATAA & A3=='1 & TRN_LH, DELAY(-1,36ns,50ns),
+         DATAB & B3=='0 & TRN_HL, DELAY(-1,16ns,30ns),
+         DATAA & A3=='0 & TRN_HL, DELAY(-1,22ns,35ns),
+         DATAB & B3=='1 & TRN_LH, DELAY(-1,22ns,35ns),
+         TRN_ZH, DELAY(-1,27ns,40ns),
+         TRN_ZL, DELAY(-1,35ns,50ns),
+         TRN_HZ, DELAY(-1,20ns,30ns),
+         TRN_LZ, DELAY(-1,15ns,25ns),
+         DELAY(-1,37ns,51ns))}
+
+     Y4 = {
+       CASE(
+         DATAA & A4=='1 & TRN_LH, DELAY(-1,36ns,50ns),
+         DATAB & B4=='0 & TRN_HL, DELAY(-1,16ns,30ns),
+         DATAA & A4=='0 & TRN_HL, DELAY(-1,22ns,35ns),
+         DATAB & B4=='1 & TRN_LH, DELAY(-1,22ns,35ns),
+         TRN_ZH, DELAY(-1,27ns,40ns),
+         TRN_ZL, DELAY(-1,35ns,50ns),
+         TRN_HZ, DELAY(-1,20ns,30ns),
+         TRN_LZ, DELAY(-1,15ns,25ns),
+         DELAY(-1,37ns,51ns))}
+
+     Y5 = {
+       CASE(
+         DATAA & A5=='1 & TRN_LH, DELAY(-1,36ns,50ns),
+         DATAB & B5=='0 & TRN_HL, DELAY(-1,16ns,30ns),
+         DATAA & A5=='0 & TRN_HL, DELAY(-1,22ns,35ns),
+         DATAB & B5=='1 & TRN_LH, DELAY(-1,22ns,35ns),
+         TRN_ZH, DELAY(-1,27ns,40ns),
+         TRN_ZL, DELAY(-1,35ns,50ns),
+         TRN_HZ, DELAY(-1,20ns,30ns),
+         TRN_LZ, DELAY(-1,15ns,25ns),
+         DELAY(-1,37ns,51ns))}
+
+     Y6 = {
+       CASE(
+         DATAA & A6=='1 & TRN_LH, DELAY(-1,36ns,50ns),
+         DATAB & B6=='0 & TRN_HL, DELAY(-1,16ns,30ns),
+         DATAA & A6=='0 & TRN_HL, DELAY(-1,22ns,35ns),
+         DATAB & B6=='1 & TRN_LH, DELAY(-1,22ns,35ns),
+         TRN_ZH, DELAY(-1,27ns,40ns),
+         TRN_ZL, DELAY(-1,35ns,50ns),
+         TRN_HZ, DELAY(-1,20ns,30ns),
+         TRN_LZ, DELAY(-1,15ns,25ns),
+         DELAY(-1,37ns,51ns))}
+
+     Y7 = {
+       CASE(
+         DATAA & A7=='1 & TRN_LH, DELAY(-1,36ns,50ns),
+         DATAB & B7=='0 & TRN_HL, DELAY(-1,16ns,30ns),
+         DATAA & A7=='0 & TRN_HL, DELAY(-1,22ns,35ns),
+         DATAB & B7=='1 & TRN_LH, DELAY(-1,22ns,35ns),
+         TRN_ZH, DELAY(-1,27ns,40ns),
+         TRN_ZL, DELAY(-1,35ns,50ns),
+         TRN_HZ, DELAY(-1,20ns,30ns),
+         TRN_LZ, DELAY(-1,15ns,25ns),
+         DELAY(-1,37ns,51ns))}
+
+     Y8 = {
+       CASE(
+         DATAA & A8=='1 & TRN_LH, DELAY(-1,36ns,50ns),
+         DATAB & B8=='0 & TRN_HL, DELAY(-1,16ns,30ns),
+         DATAA & A8=='0 & TRN_HL, DELAY(-1,22ns,35ns),
+         DATAB & B8=='1 & TRN_LH, DELAY(-1,22ns,35ns),
+         TRN_ZH, DELAY(-1,27ns,40ns),
+         TRN_ZL, DELAY(-1,35ns,50ns),
+         TRN_HZ, DELAY(-1,20ns,30ns),
+         TRN_LZ, DELAY(-1,15ns,25ns),
+         DELAY(-1,37ns,51ns))}

U5CON CONSTRAINT(17) DPWR DGND
+     CLK A1 A2 A3 A4 A5 A6 A7 A8 B1 B2 B3 B4 B5 B6 B7 B8
+     IO_LS IO_LEVEL={IO_LEVEL}
+
+  WIDTH:
+     NODE=CLK
+     MIN_HI=20ns
+     MIN_LO=20ns
+
+  SETUP_HOLD:
+     CLOCK LH=CLK
+     DATA(16)=A1 A2 A3 A4 A5 A6 A7 A8 B1 B2 B3 B4 B5 B6 B7 B8
+     SETUPTIME=20ns

.ENDS 74LS606
*
*
* ----------------------------------------------------------- 74LS607 ------
*  Octal 2-Input Multiplexed Latches With Open Collector Outputs
*
*  The TTL Logic Data Book, 1988, TI Pages 2-1015 to 2-1019
*  bss    5/10/94
*
.SUBCKT 74LS607 A/BBAR CLK A1 A2 A3 A4 A5 A6 A7 A8 B1 B2 B3 B4 B5 B6 B7 B8
+     Y1 Y2 Y3 Y4 Y5 Y6 Y7 Y8
+     optional:  DPWR=$G_DPWR DGND=$G_DGND
+     params:  MNTYMXDLY=0 IO_LEVEL=0

U1 bufa(2) DPWR DGND
+     A/BBAR CLK A/B CLKBUF
+     D0_GATE IO_LS_ST MNTYMXDLY={MNTYMXDLY} IO_LEVEL={IO_LEVEL}

U2 dff(16) DPWR DGND
+     $D_HI $D_HI CLK
+     A1 A2 A3 A4 A5 A6 A7 A8 B1 B2 B3 B4 B5 B6 B7 B8
+     $D_NC $D_NC $D_NC $D_NC $D_NC $D_NC $D_NC $D_NC
+     $D_NC $D_NC $D_NC $D_NC $D_NC $D_NC $D_NC $D_NC
+     QA1B QA2B QA3B QA4B QA5B QA6B QA7B QA8B
+     QB1B QB2B QB3B QB4B QB5B QB6B QB7B QB8B
+     D0_EFF IO_LS MNTYMXDLY={MNTYMXDLY} IO_LEVEL={IO_LEVEL}

U3LOG LOGICEXP(18,8) DPWR DGND
+     QA1B QA2B QA3B QA4B QA5B QA6B QA7B QA8B CLKBUF
+     QB1B QB2B QB3B QB4B QB5B QB6B QB7B QB8B A/B
+     Y1_O Y2_O Y3_O Y4_O Y5_O Y6_O Y7_O Y8_O
+     D0_GATE IO_LS MNTYMXDLY={MNTYMXDLY} IO_LEVEL={IO_LEVEL}
+
+  LOGIC:
+     bup = {~A/B}
+     Y1_OC = {~((QA1B & A/B) | (QB1B & bup))}
+     Y2_OC = {~((QA2B & A/B) | (QB2B & bup))}
+     Y3_OC = {~((QA3B & A/B) | (QB3B & bup))}
+     Y4_OC = {~((QA4B & A/B) | (QB4B & bup))}
+     Y5_OC = {~((QA5B & A/B) | (QB5B & bup))}
+     Y6_OC = {~((QA6B & A/B) | (QB6B & bup))}
+     Y7_OC = {~((QA7B & A/B) | (QB7B & bup))}
+     Y8_OC = {~((QA8B & A/B) | (QB8B & bup))}
+     Y1_O = {(~CLKBUF) | Y1_OC}
+     Y2_O = {(~CLKBUF) | Y2_OC}
+     Y3_O = {(~CLKBUF) | Y3_OC}
+     Y4_O = {(~CLKBUF) | Y4_OC}
+     Y5_O = {(~CLKBUF) | Y5_OC}
+     Y6_O = {(~CLKBUF) | Y6_OC}
+     Y7_O = {(~CLKBUF) | Y7_OC}
+     Y8_O = {(~CLKBUF) | Y8_OC}

U4DLY PINDLY(8,0,18) DPWR DGND
+     Y1_O Y2_O Y3_O Y4_O Y5_O Y6_O Y7_O Y8_O
+     A/BBAR A1 A2 A3 A4 A5 A6 A7 A8 B1 B2 B3 B4 B5 B6 B7 B8 CLK
+     Y1 Y2 Y3 Y4 Y5 Y6 Y7 Y8
+     IO_LS_OC MNTYMXDLY={MNTYMXDLY} IO_LEVEL={IO_LEVEL}
+
+  BOOLEAN:
+     DATAA = {CHANGED_LH(A/BBAR,0)}
+     DATAB = {CHANGED_HL(A/BBAR,0)}
+     CLOCK = {CHANGED(CLK,0)}
+
+  PINDLY:
+     Y1 = {
+       CASE(
+         DATAA & A1=='1 & TRN_LH, DELAY(-1,51ns,70ns),
+         DATAB & B1=='0 & TRN_HL, DELAY(-1,21ns,30ns),
+         DATAA & A1=='0 & TRN_HL, DELAY(-1,28ns,40ns),
+         DATAB & B1=='1 & TRN_LH, DELAY(-1,28ns,40ns),
+         CLOCK & TRN_LH, DELAY(-1,30ns,45ns),
+         CLOCK & TRN_HL, DELAY(-1,32ns,45ns),
+         DELAY(-1,52ns,71ns))}
+
+     Y2 = {
+       CASE(
+         DATAA & A2=='1 & TRN_LH, DELAY(-1,51ns,70ns),
+         DATAB & B2=='0 & TRN_HL, DELAY(-1,21ns,30ns),
+         DATAA & A2=='0 & TRN_HL, DELAY(-1,28ns,40ns),
+         DATAB & B2=='1 & TRN_LH, DELAY(-1,28ns,40ns),
+         CLOCK & TRN_LH, DELAY(-1,30ns,45ns),
+         CLOCK & TRN_HL, DELAY(-1,32ns,45ns),
+         DELAY(-1,52ns,71ns))}
+
+     Y3 = {
+       CASE(
+         DATAA & A3=='1 & TRN_LH, DELAY(-1,51ns,70ns),
+         DATAB & B3=='0 & TRN_HL, DELAY(-1,21ns,30ns),
+         DATAA & A3=='0 & TRN_HL, DELAY(-1,28ns,40ns),
+         DATAB & B3=='1 & TRN_LH, DELAY(-1,28ns,40ns),
+         CLOCK & TRN_LH, DELAY(-1,30ns,45ns),
+         CLOCK & TRN_HL, DELAY(-1,32ns,45ns),
+         DELAY(-1,52ns,71ns))}
+
+     Y4 = {
+       CASE(
+         DATAA & A4=='1 & TRN_LH, DELAY(-1,51ns,70ns),
+         DATAB & B4=='0 & TRN_HL, DELAY(-1,21ns,30ns),
+         DATAA & A4=='0 & TRN_HL, DELAY(-1,28ns,40ns),
+         DATAB & B4=='1 & TRN_LH, DELAY(-1,28ns,40ns),
+         CLOCK & TRN_LH, DELAY(-1,30ns,45ns),
+         CLOCK & TRN_HL, DELAY(-1,32ns,45ns),
+         DELAY(-1,52ns,71ns))}
+
+     Y5 = {
+       CASE(
+         DATAA & A5=='1 & TRN_LH, DELAY(-1,51ns,70ns),
+         DATAB & B5=='0 & TRN_HL, DELAY(-1,21ns,30ns),
+         DATAA & A5=='0 & TRN_HL, DELAY(-1,28ns,40ns),
+         DATAB & B5=='1 & TRN_LH, DELAY(-1,28ns,40ns),
+         CLOCK & TRN_LH, DELAY(-1,30ns,45ns),
+         CLOCK & TRN_HL, DELAY(-1,32ns,45ns),
+         DELAY(-1,52ns,71ns))}
+
+     Y6 = {
+       CASE(
+         DATAA & A6=='1 & TRN_LH, DELAY(-1,51ns,70ns),
+         DATAB & B6=='0 & TRN_HL, DELAY(-1,21ns,30ns),
+         DATAA & A6=='0 & TRN_HL, DELAY(-1,28ns,40ns),
+         DATAB & B6=='1 & TRN_LH, DELAY(-1,28ns,40ns),
+         CLOCK & TRN_LH, DELAY(-1,30ns,45ns),
+         CLOCK & TRN_HL, DELAY(-1,32ns,45ns),
+         DELAY(-1,52ns,71ns))}
+
+     Y7 = {
+       CASE(
+         DATAA & A7=='1 & TRN_LH, DELAY(-1,51ns,70ns),
+         DATAB & B7=='0 & TRN_HL, DELAY(-1,21ns,30ns),
+         DATAA & A7=='0 & TRN_HL, DELAY(-1,28ns,40ns),
+         DATAB & B7=='1 & TRN_LH, DELAY(-1,28ns,40ns),
+         CLOCK & TRN_LH, DELAY(-1,30ns,45ns),
+         CLOCK & TRN_HL, DELAY(-1,32ns,45ns),
+         DELAY(-1,52ns,71ns))}
+
+     Y8 = {
+       CASE(
+         DATAA & A8=='1 & TRN_LH, DELAY(-1,51ns,70ns),
+         DATAB & B8=='0 & TRN_HL, DELAY(-1,21ns,30ns),
+         DATAA & A8=='0 & TRN_HL, DELAY(-1,28ns,40ns),
+         DATAB & B8=='1 & TRN_LH, DELAY(-1,28ns,40ns),
+         CLOCK & TRN_LH, DELAY(-1,30ns,45ns),
+         CLOCK & TRN_HL, DELAY(-1,32ns,45ns),
+         DELAY(-1,52ns,71ns))}

U5CON CONSTRAINT(17) DPWR DGND
+     CLK A1 A2 A3 A4 A5 A6 A7 A8 B1 B2 B3 B4 B5 B6 B7 B8
+     IO_LS IO_LEVEL={IO_LEVEL}
+
+  WIDTH:
+     NODE=CLK
+     MIN_HI=20ns
+     MIN_LO=20ns
+
+  SETUP_HOLD:
+     CLOCK LH=CLK
+     DATA(16)=A1 A2 A3 A4 A5 A6 A7 A8 B1 B2 B3 B4 B5 B6 B7 B8
+     SETUPTIME=20ns

.ENDS 74LS607
*
*
* ----------------------------------------------------------- 74ALS614 ------
*  Octal Bus Transceivers And Registers With Open Collector Outputs
*
*  The ALS/AS Logic Data Book, 1986, TI Pages 2-457 to 2-462
*  bss    5/10/94
*
.SUBCKT 74ALS614 GBABAR GAB CBA SBA CAB SAB A1 A2 A3 A4 A5 A6 A7 A8
+     B1 B2 B3 B4 B5 B6 B7 B8
+     optional:  DPWR=$G_DPWR DGND=$G_DGND
+     params:  MNTYMXDLY=0 IO_LEVEL=0

U1 dff(8) DPWR DGND
+     $D_HI $D_HI CAB
+     A1 A2 A3 A4 A5 A6 A7 A8
+     QA1 QA2 QA3 QA4 QA5 QA6 QA7 QA8
+     $D_NC $D_NC $D_NC $D_NC $D_NC $D_NC $D_NC $D_NC
+     D0_EFF IO_ALS00 MNTYMXDLY={MNTYMXDLY} IO_LEVEL={IO_LEVEL}

U2 dff(8) DPWR DGND
+     $D_HI $D_HI CBA
+     B1 B2 B3 B4 B5 B6 B7 B8
+     QB1 QB2 QB3 QB4 QB5 QB6 QB7 QB8
+     $D_NC $D_NC $D_NC $D_NC $D_NC $D_NC $D_NC $D_NC
+     D0_EFF IO_ALS00 MNTYMXDLY={MNTYMXDLY} IO_LEVEL={IO_LEVEL}

U3LOG LOGICEXP(36,16) DPWR DGND
+     GBABAR GAB SBA SAB A1 A2 A3 A4 A5 A6 A7 A8 B1 B2 B3 B4 B5 B6 B7 B8
+     QA1 QA2 QA3 QA4 QA5 QA6 QA7 QA8
+     QB1 QB2 QB3 QB4 QB5 QB6 QB7 QB8
+     A1_O A2_O A3_O A4_O A5_O A6_O A7_O A8_O
+     B1_O B2_O B3_O B4_O B5_O B6_O B7_O B8_O
+     D0_GATE IO_ALS00 MNTYMXDLY={MNTYMXDLY} IO_LEVEL={IO_LEVEL}
+
+  LOGIC:
+     sbabar = {~SBA}
+     sabbar = {~SAB}
+     A1_OC = {~((SBA & QB1) | (sbabar & B1))}
+     A1_O = {GBABAR | A1_OC}
+     A2_OC = {~((SBA & QB2) | (sbabar & B2))}
+     A2_O = {GBABAR | A2_OC}
+     A3_OC = {~((SBA & QB3) | (sbabar & B3))}
+     A3_O = {GBABAR | A3_OC}
+     A4_OC = {~((SBA & QB4) | (sbabar & B4))}
+     A4_O = {GBABAR | A4_OC}
+     A5_OC = {~((SBA & QB5) | (sbabar & B5))}
+     A5_O = {GBABAR | A5_OC}
+     A6_OC = {~((SBA & QB6) | (sbabar & B6))}
+     A6_O = {GBABAR | A6_OC}
+     A7_OC = {~((SBA & QB7) | (sbabar & B7))}
+     A7_O = {GBABAR | A7_OC}
+     A8_OC = {~((SBA & QB8) | (sbabar & B8))}
+     A8_O = {GBABAR | A8_OC}
+     B1_OC = {~((SAB & QA1) | (sabbar & A1))}
+     B1_O = {(~GAB) | B1_OC}
+     B2_OC = {~((SAB & QA2) | (sabbar & A2))}
+     B2_O = {(~GAB) | B2_OC}
+     B3_OC = {~((SAB & QA3) | (sabbar & A3))}
+     B3_O = {(~GAB) | B3_OC}
+     B4_OC = {~((SAB & QA4) | (sabbar & A4))}
+     B4_O = {(~GAB) | B4_OC}
+     B5_OC = {~((SAB & QA5) | (sabbar & A5))}
+     B5_O = {(~GAB) | B5_OC}
+     B6_OC = {~((SAB & QA6) | (sabbar & A6))}
+     B6_O = {(~GAB) | B6_OC}
+     B7_OC = {~((SAB & QA7) | (sabbar & A7))}
+     B7_O = {(~GAB) | B7_OC}
+     B8_OC = {~((SAB & QA8) | (sabbar & A8))}
+     B8_O = {(~GAB) | B8_OC}

U4DLY PINDLY(16,0,22) DPWR DGND
+     A1_O A2_O A3_O A4_O A5_O A6_O A7_O A8_O
+     B1_O B2_O B3_O B4_O B5_O B6_O B7_O B8_O
+     A1 A2 A3 A4 A5 A6 A7 A8 B1 B2 B3 B4 B5 B6 B7 B8
+     CBA CAB SBA SAB GBABAR GAB
+     A1 A2 A3 A4 A5 A6 A7 A8 B1 B2 B3 B4 B5 B6 B7 B8
+     IO_ALS00_OC MNTYMXDLY={MNTYMXDLY} IO_LEVEL={IO_LEVEL}
+
+  BOOLEAN:
+     CLKBA = {CHANGED_LH(CBA,0)}
+     CLKAB = {CHANGED_LH(CAB,0)}
+     SELBA = {CHANGED(SBA,0)}
+     SELAB = {CHANGED(SAB,0)}
+     ENBA = {CHANGED(GBABAR,0)}
+     ENAB = {CHANGED(GAB,0)}
+     DATAA = {CHANGED(A1,0) | CHANGED(A2,0) | CHANGED(A3,0) | CHANGED(A4,0) |
+            CHANGED(A5,0) | CHANGED(A6,0) | CHANGED(A7,0) | CHANGED(A8,0)}
+     DATAB = {CHANGED(B1,0) | CHANGED(B2,0) | CHANGED(B3,0) | CHANGED(B4,0) |
+            CHANGED(B5,0) | CHANGED(B6,0) | CHANGED(B7,0) | CHANGED(B8,0)}
+
+  PINDLY:
+     A1 A2 A3 A4 A5 A6 A7 A8 = {
+       CASE(
+         ENBA & TRN_LH, DELAY(-1,16ns,22ns),
+         ENBA & TRN_HL, DELAY(-1,12ns,18ns),
+         CLKBA & SBA=='1 & TRN_LH, DELAY(-1,37ns,52ns),
+         CLKBA & SBA=='1 & TRN_HL, DELAY(-1,14ns,19ns),
+         SELBA & TRN_LH, DELAY(-1,35ns,47ns),
+         SELBA & TRN_HL, DELAY(-1,12ns,20ns),
+         DATAB & SBA=='0 & TRN_LH, DELAY(-1,31ns,42ns),
+         DATAB & SBA=='0 & TRN_HL, DELAY(-1,6ns,10ns),
+         DELAY(-1,38ns,53ns))}
+
+     B1 B2 B3 B4 B5 B6 B7 B8 = {
+       CASE(
+         ENAB & TRN_LH, DELAY(-1,16ns,22ns),
+         ENAB & TRN_HL, DELAY(-1,12ns,18ns),
+         CLKAB & SAB=='1 & TRN_LH, DELAY(-1,37ns,52ns),
+         CLKAB & SAB=='1 & TRN_HL, DELAY(-1,14ns,19ns),
+         SELAB & TRN_LH, DELAY(-1,35ns,47ns),
+         SELAB & TRN_HL, DELAY(-1,12ns,20ns),
+         DATAA & SBA=='0 & TRN_LH, DELAY(-1,31ns,42ns),
+         DATAA & SBA=='0 & TRN_HL, DELAY(-1,6ns,10ns),
+         DELAY(-1,38ns,53ns))}

U5CON CONSTRAINT(18) DPWR DGND
+     CBA CAB A1 A2 A3 A4 A5 A6 A7 A8 B1 B2 B3 B4 B5 B6 B7 B8
+     IO_ALS00 IO_LEVEL={IO_LEVEL}
+
+  WIDTH:
+     NODE=CBA
+     MIN_HI=16.5ns
+     MIN_LO=16.5ns
+
+  WIDTH:
+     NODE=CAB
+     MIN_HI=16.5ns
+     MIN_LO=16.5ns
+
+  SETUP_HOLD:
+     CLOCK LH=CAB
+     DATA(8)=A1 A2 A3 A4 A5 A6 A7 A8
+     SETUPTIME=10ns
+
+  SETUP_HOLD:
+     CLOCK LH=CBA
+     DATA(8)=B1 B2 B3 B4 B5 B6 B7 B8
+     SETUPTIME=10ns

.ENDS 74ALS614
*
*
* ----------------------------------------------------------- 74ALS615 ------
*  Octal Bus Transceivers And Registers With Open Collector Outputs
*
*  The ALS/AS Logic Data Book, 1986, TI Pages 2-457 to 2-462
*  bss    5/10/94
*
.SUBCKT 74ALS615 GBABAR GAB CBA SBA CAB SAB A1 A2 A3 A4 A5 A6 A7 A8
+     B1 B2 B3 B4 B5 B6 B7 B8
+     optional:  DPWR=$G_DPWR DGND=$G_DGND
+     params:  MNTYMXDLY=0 IO_LEVEL=0
