*-------------------------------------------------------------74ACT874----

* Dual 4 Bit D-Type Edge Triggered Flip Flops with Tri-State Outputs
* TI Advanced CMOS Logic Data Book, 1993, pages 2-611 to 2-614
* jat 12/21/95

.SUBCKT 74ACT874
+ OEBAR CLK CLRBAR D1 D2 D3 D4 Q1 Q2 Q3 Q4
+ OPTIONAL: DPWR=$G_DPWR DGND=$G_DGND
+ PARAMS: MNTYMXDLY=0 IO_LEVEL=0

U1 DFF(4) DPWR DGND
+ $D_HI CLRBAR CLK
+ D1 D2 D3 D4 Q1O Q2O Q3O Q4O $D_NC $D_NC $D_NC $D_NC
+ D0_EFF IO_ACT MNTYMXDLY={MNTYMXDLY} IO_LEVEL={IO_LEVEL}

U2 PINDLY(4,1,2) DPWR DGND
+ Q1O Q2O Q3O Q4O
+ OEBAR
+ CLK CLRBAR
+ Q1 Q2 Q3 Q4
+ IO_ACT MNTYMXDLY={MNTYMXDLY} IO_LEVEL = {IO_LEVEL}
+ BOOLEAN:
+   CLEAR = {CHANGED_HL(CLRBAR,0)}
+   CLOCK = {CHANGED_LH(CLK,0)}
+ TRISTATE:
+   ENABLE LO = OEBAR
+   Q1 Q2 Q3 Q4 = {
+     CASE(
+       TRN_ZH, DELAY(-1,6.4NS,-1),
+       TRN_ZL, DELAY(-1,8.6NS,-1),
+       TRN_HZ, DELAY(-1,6.9NS,-1),
+       TRN_LZ, DELAY(-1,6.8NS,-1),
+       CLEAR & TRN_HL, DELAY(-1,8.8NS,-1),
+       CLOCK & TRN_LH, DELAY(-1,7.5NS,-1),
+       CLOCK & TRN_HL, DELAY(-1,8.1NS,-1),
+       DELAY(-1,9.8NS,-1))}

U3 CONSTRAINT(6) DPWR DGND
+ CLRBAR CLK D1 D2 D3 D4
+ IO_ACT IO_LEVEL = {IO_LEVEL}
+ FREQ:
+   NODE = CLK
+   MAXFREQ = 125MEG
+ WIDTH:
+  NODE = CLRBAR
+  MIN_LO = 2NS
+ WIDTH:
+  NODE = CLK
+  MIN_HI = 2NS
+  MIN_LO = 2NS
+ SETUP_HOLD:
+  CLOCK LH = CLK
+  DATA(4) = D1 D2 D3 D4
+  SETUPTIME = 1NS
+  HOLDTIME = 2NS
+ SETUP_HOLD:
+  CLOCK LH = CLK
+  DATA(1) = CLRBAR
+  SETUPTIME_LO = 2NS

.ENDS 74ACT874

* ----------------------------------------------------------- 74ALS874B ------
*  Dual 4-Bit D-Type Edge-Triggered Flip-Flops
*
*  The ALS/AS Logic Data Book, 1986, TI Pages 2-743 to 2-748
*  bss    6/21/94
*
.SUBCKT 74ALS874B 1OCBAR 1CLK 1CLRBAR 1D1 1D2 1D3 1D4 1Q1 1Q2 1Q3 1Q4 
+     optional:  DPWR=$G_DPWR DGND=$G_DGND
+     params:  MNTYMXDLY=0 IO_LEVEL=0

U1 dff(4) DPWR DGND
+     $D_HI 1CLRBAR 1CLK
+     1D1 1D2 1D3 1D4
+     Q1_O Q2_O Q3_O Q4_O
+     $D_NC $D_NC $D_NC $D_NC
+     D0_EFF IO_ALS00 MNTYMXDLY={MNTYMXDLY} IO_LEVEL={IO_LEVEL}

U2DLY PINDLY(4,1,2) DPWR DGND
+     Q1_O Q2_O Q3_O Q4_O
+     1OCBAR
+     1CLRBAR 1CLK
+     1Q1 1Q2 1Q3 1Q4
+     IO_ALS00 MNTYMXDLY={MNTYMXDLY} IO_LEVEL={IO_LEVEL}
+
+  BOOLEAN:
+     CLEAR = {CHANGED_HL(1CLRBAR,0)}
+     CLOCK = {CHANGED_LH(1CLK,0)}
+
+  TRISTATE:
+     ENABLE LO=1OCBAR
+     1Q1 1Q2 1Q3 1Q4 = {
+       CASE(
+         CLEAR & TRN_HL, DELAY(5ns,-1,17ns),
+         CLOCK & TRN_LH, DELAY(4ns,-1,14ns),
+         CLOCK & TRN_HL, DELAY(4ns,-1,14ns),
+         TRN_Z$, DELAY(4ns,-1,18ns),
+         TRN_HZ, DELAY(2ns,-1,10ns),
+         TRN_LZ, DELAY(3ns,-1,12ns),
+         DELAY(6ns,-1,19ns))}

U3CON CONSTRAINT(6) DPWR DGND
+     1CLRBAR 1CLK 1D1 1D2 1D3 1D4
+     IO_ALS00 IO_LEVEL={IO_LEVEL}
+
+  WIDTH:
+     NODE=1CLRBAR
+     MIN_LO=10ns
+
+  FREQ:
+     NODE=1CLK
+     MAXFREQ=30MEG
+
+  WIDTH:
+     NODE=1CLK
+     MIN_HI=16.5ns
+     MIN_LO=16.5ns
+
+  SETUP_HOLD:
+     CLOCK LH=1CLK
+     DATA(4)=1D1 1D2 1D3 1D4
+     SETUPTIME=15ns
+
+  SETUP_HOLD:
+     CLOCK LH=1CLK
+     DATA(1)=1CLRBAR
+     SETUPTIME_HI=10ns

.ENDS 74ALS874B
*
*
* ----------------------------------------------------------- 74AS874 ------
*  Dual 4-Bit D-Type Edge-Triggered Flip-Flops
*
*  The ALS/AS Logic Data Book, 1986, TI Pages 2-743 to 2-748
*  bss    6/21/94
*
.SUBCKT 74AS874 1OCBAR 1CLK 1CLRBAR 1D1 1D2 1D3 1D4 1Q1 1Q2 1Q3 1Q4 
+     optional:  DPWR=$G_DPWR DGND=$G_DGND
+     params:  MNTYMXDLY=0 IO_LEVEL=0

U1 dff(4) DPWR DGND
+     $D_HI 1CLRBAR 1CLK
+     1D1 1D2 1D3 1D4
+     Q1_O Q2_O Q3_O Q4_O
+     $D_NC $D_NC $D_NC $D_NC
+     D0_EFF IO_AS00 MNTYMXDLY={MNTYMXDLY} IO_LEVEL={IO_LEVEL}

U2DLY PINDLY(4,1,2) DPWR DGND
+     Q1_O Q2_O Q3_O Q4_O
+     1OCBAR
+     1CLRBAR 1CLK
+     1Q1 1Q2 1Q3 1Q4
+     IO_AS00 MNTYMXDLY={MNTYMXDLY} IO_LEVEL={IO_LEVEL}
+
+  BOOLEAN:
+     CLEAR = {CHANGED_HL(1CLRBAR,0)}
+     CLOCK = {CHANGED_LH(1CLK,0)}
+
+  TRISTATE:
+     ENABLE LO=1OCBAR
+     1Q1 1Q2 1Q3 1Q4 = {
+       CASE(
+         CLEAR & TRN_HL, DELAY(4ns,-1,9.5ns),
+         CLOCK & TRN_LH, DELAY(3ns,-1,8.5ns),
+         CLOCK & TRN_HL, DELAY(4ns,-1,10.5ns),
+         TRN_ZH, DELAY(2ns,-1,7ns),
+         TRN_ZL, DELAY(3ns,-1,10.5ns),
+         TRN_HZ, DELAY(2ns,-1,6ns),
+         TRN_LZ, DELAY(2ns,-1,7.5ns),
+         DELAY(5ns,-1,11.5ns))}

U3CON CONSTRAINT(6) DPWR DGND
+     1CLRBAR 1CLK 1D1 1D2 1D3 1D4
+     IO_AS00 IO_LEVEL={IO_LEVEL}
+
+  WIDTH:
+     NODE=1CLRBAR
+     MIN_LO=2ns
+
+  FREQ:
+     NODE=1CLK
+     MAXFREQ=125MEG
+
+  WIDTH:
+     NODE=1CLK
+     MIN_HI=3ns
+     MIN_LO=4ns
+
+  SETUP_HOLD:
+     CLOCK LH=1CLK
+     DATA(4)=1D1 1D2 1D3 1D4
+     SETUPTIME=2ns
+     HOLDTIME=1ns
+
+  SETUP_HOLD:
+     CLOCK LH=1CLK
+     DATA(1)=1CLRBAR
+     SETUPTIME_HI=4ns

.ENDS 74AS874
*
*
*-------------------------------------------------------------74ALS876A----

* Dual 4 Bit D-Type Edge Triggered Flip Flops
* TI ALS/AS Logic Data Book, 1986, pages 2-743 to 2-748
* jat 3/26/96

.SUBCKT 74ALS876A
+ OCBAR CLK PREBAR D1 D2 D3 D4 Q1BAR Q2BAR Q3BAR Q4BAR
+ OPTIONAL: DPWR=$G_DPWR DGND=$G_DGND
+ PARAMS: MNTYMXDLY=0 IO_LEVEL=0

U1 DFF(4) DPWR DGND
+ PREBAR $D_HI CLK
+ D1 D2 D3 D4 $D_NC $D_NC $D_NC $D_NC Q1BARO Q2BARO Q3BARO Q4BARO
+ D0_EFF IO_ALS00 MNTYMXDLY={MNTYMXDLY} IO_LEVEL={IO_LEVEL}

U2 PINDLY(4,1,2) DPWR DGND
+ Q1BARO Q2BARO Q3BARO Q4BARO
+ OCBAR
+ CLK PREBAR
+ Q1BAR Q2BAR Q3BAR Q4BAR
+ IO_ALS00 MNTYMXDLY={MNTYMXDLY} IO_LEVEL = {IO_LEVEL}
+ BOOLEAN:
+   SET = {CHANGED_HL(PREBAR,0)}
+   CLOCK = {CHANGED_LH(CLK,0)}
+ TRISTATE:
+   ENABLE LO = OCBAR
+   Q1BAR Q2BAR Q3BAR Q4BAR = {
+     CASE(
+       TRN_ZH, DELAY(-1,10NS,13NS),
+       TRN_ZL, DELAY(-1,11NS,15NS),
+       TRN_HZ, DELAY(-1,6NS,8NS),
+       TRN_LZ, DELAY(-1,7NS,10NS),
+       SET & TRN_HL, DELAY(-1,10NS,16NS),
+       CLOCK & TRN_LH, DELAY(-1,8NS,11NS),
+       CLOCK & TRN_HL, DELAY(-1,9NS,12NS),
+       DELAY(-1,12NS,17NS))}

U3 CONSTRAINT(6) DPWR DGND
+ PREBAR CLK D1 D2 D3 D4
+ IO_ALS00 IO_LEVEL = {IO_LEVEL}
+ FREQ:
+   NODE = CLK
+   MAXFREQ = 30MEG
+ WIDTH:
+  NODE = PREBAR
+  MIN_LO = 10NS
+ WIDTH:
+  NODE = CLK
+  MIN_HI = 16.5NS
+  MIN_LO = 16.5NS
+ SETUP_HOLD:
+  CLOCK LH = CLK
+  DATA(4) = D1 D2 D3 D4
+  SETUPTIME = 15NS
+ SETUP_HOLD:
+  CLOCK LH = CLK
+  DATA(1) = PREBAR
+  SETUPTIME_HI = 10NS

.ENDS 74ALS876A

*-------------------------------------------------------------74AS876----

* Dual 4 Bit D-Type Edge Triggered Flip Flops
* TI ALS/AS Logic Data Book, 1986, pages 2-743 to 2-748
* jat 3/26/96

.SUBCKT 74AS876
+ OCBAR CLK PREBAR D1 D2 D3 D4 Q1BAR Q2BAR Q3BAR Q4BAR
+ OPTIONAL: DPWR=$G_DPWR DGND=$G_DGND
+ PARAMS: MNTYMXDLY=0 IO_LEVEL=0

U1 DFF(4) DPWR DGND
+ PREBAR $D_HI CLK
+ D1 D2 D3 D4 $D_NC $D_NC $D_NC $D_NC Q1BARO Q2BARO Q3BARO Q4BARO
+ D0_EFF IO_AS00 MNTYMXDLY={MNTYMXDLY} IO_LEVEL={IO_LEVEL}

U2 PINDLY(4,1,2) DPWR DGND
+ Q1BARO Q2BARO Q3BARO Q4BARO
+ OCBAR
+ CLK PREBAR
+ Q1BAR Q2BAR Q3BAR Q4BAR
+ IO_AS00 MNTYMXDLY={MNTYMXDLY} IO_LEVEL = {IO_LEVEL}
+ BOOLEAN:
+   SET = {CHANGED_HL(PREBAR,0)}
+   CLOCK = {CHANGED_LH(CLK,0)}
+ TRISTATE:
+   ENABLE LO = OCBAR
+   Q1BAR Q2BAR Q3BAR Q4BAR = {
+     CASE(
+       TRN_ZH, DELAY(2NS,-1,8NS),
+       TRN_ZL, DELAY(3NS,-1,11.5NS),
+       TRN_HZ, DELAY(2NS,-1,7NS),
+       TRN_LZ, DELAY(2NS,-1,7NS),
+       SET & TRN_HL, DELAY(4NS,-1,11NS),
+       CLOCK & TRN_LH, DELAY(3NS,-1,11.5NS),
+       CLOCK & TRN_HL, DELAY(4NS,-1,12.5NS),
+       DELAY(5NS,-1,13.5NS))}

U3 CONSTRAINT(6) DPWR DGND
+ PREBAR CLK D1 D2 D3 D4
+ IO_AS00 IO_LEVEL = {IO_LEVEL}
+ FREQ:
+   NODE = CLK
+   MAXFREQ = 125MEG
+ WIDTH:
+  NODE = PREBAR
+  MIN_LO = 2NS
+ WIDTH:
+  NODE = CLK
+  MIN_HI = 3NS
+  MIN_LO = 4NS
+ SETUP_HOLD:
+  CLOCK LH = CLK
+  DATA(4) = D1 D2 D3 D4
+  SETUPTIME = 2NS
+  HOLDTIME = 1NS
+ SETUP_HOLD:
+  CLOCK LH = CLK
+  DATA(1) = PREBAR
+  SETUPTIME_HI = 4NS

.ENDS 74AS876

*------------------------------------------------------------74AS877-----

* 8 Bit Universal Transceiver Port Controllers
* TI ALS/AS Logic Data Book, 1986, pages 2-749 to 2-754
* jat 3/26/96

.SUBCKT 74AS877
+ A1 A2 A3 A4 A5 A6 A7 A8 B1 B2 B3 B4 B5 B6 B7 B8 S0 S1 S2 CLK SERIN Q8
+ OPTIONAL: DPWR=$G_DPWR DGND=$G_DGND
+ PARAMS: MNTYMXDLY=0 IO_LEVEL=0

U1 LOGICEXP(28,26) DPWR DGND
+ S0 S1 S2 A1 A2 A3 A4 A5 A6 A7 A8 B1 B2 B3 B4 B5 B6 B7 B8 SERIN 
+ Q1 Q2 Q3 Q4 Q5 Q6 Q7 Q8O
+ D1 D2 D3 D4 D5 D6 D7 D8 A1O A2O A3O A4O A5O A6O A7O A8O B1O B2O B3O B4O B5O
+ B6O B7O B8O ENABBA ENABAB
+ D0_GATE IO_AS00 MNTYMXDLY={MNTYMXDLY} IO_LEVEL={IO_LEVEL}
+ LOGIC:
+   S0BAR = {~S0}
+   S1BAR = {~S1}
+   S2BAR = {~S2}
+   ENABBA = {~(S0BAR | (S1 & S2))}
+   ENABAB = {~(S0 | (S2 & S1))}
+   D1 = {(~A1 & S2BAR & S0BAR) | (~B1 & S2BAR & S0) |
+         (~SERIN & S2) | (S0 & S1 & S2)}
+   D2 = {(~A2 & S2BAR & S0BAR) | (~B2 & S2BAR & S0) |
+         (Q1 & S2) | (S0 & S1 & S2)}
+   D3 = {(~A3 & S2BAR & S0BAR) | (~B3 & S2BAR & S0) |
+         (Q2 & S2) | (S0 & S1 & S2)}
+   D4 = {(~A4 & S2BAR & S0BAR) | (~B4 & S2BAR & S0) |
+         (Q3 & S2) | (S0 & S1 & S2)}
+   D5 = {(~A5 & S2BAR & S0BAR) | (~B5 & S2BAR & S0) |
+         (Q4 & S2) | (S0 & S1 & S2)}
+   D6 = {(~A6 & S2BAR & S0BAR) | (~B6 & S2BAR & S0) |
+         (Q5 & S2) | (S0 & S1 & S2)}
+   D7 = {(~A7 & S2BAR & S0BAR) | (~B7 & S2BAR & S0) |
+         (Q6 & S2) | (S0 & S1 & S2)}
+   D8 = {(~A8 & S2BAR & S0BAR) | (~B8 & S2BAR & S0) |
+         (Q7 & S2) | (S0 & S1 & S2)}
+   A1O = {~((~B1 & S2BAR & S1BAR) | (S1 & Q1) | (S2 & Q1))}
+   A2O = {~((~B2 & S2BAR & S1BAR) | (S1 & Q2) | (S2 & Q2))}
+   A3O = {~((~B3 & S2BAR & S1BAR) | (S1 & Q3) | (S2 & Q3))}
+   A4O = {~((~B4 & S2BAR & S1BAR) | (S1 & Q4) | (S2 & Q4))}
+   A5O = {~((~B5 & S2BAR & S1BAR) | (S1 & Q5) | (S2 & Q5))}
+   A6O = {~((~B6 & S2BAR & S1BAR) | (S1 & Q6) | (S2 & Q6))}
+   A7O = {~((~B7 & S2BAR & S1BAR) | (S1 & Q7) | (S2 & Q7))}
+   A8O = {~((~B8 & S2BAR & S1BAR) | (S1 & Q8O) | (S2 & Q8O))}
+   B1O = {~((~A1 & S2BAR & S1BAR) | (S1 & Q1) | (S2 & Q1))}
+   B2O = {~((~A2 & S2BAR & S1BAR) | (S1 & Q2) | (S2 & Q2))}
+   B3O = {~((~A3 & S2BAR & S1BAR) | (S1 & Q3) | (S2 & Q3))}
+   B4O = {~((~A4 & S2BAR & S1BAR) | (S1 & Q4) | (S2 & Q4))}
+   B5O = {~((~A5 & S2BAR & S1BAR) | (S1 & Q5) | (S2 & Q5))}
+   B6O = {~((~A6 & S2BAR & S1BAR) | (S1 & Q6) | (S2 & Q6))}
+   B7O = {~((~A7 & S2BAR & S1BAR) | (S1 & Q7) | (S2 & Q7))}
+   B8O = {~((~A8 & S2BAR & S1BAR) | (S1 & Q8O) | (S2 & Q8O))}

U2 DFF(8) DPWR DGND
+ $D_HI $D_HI CLK
+ D1 D2 D3 D4 D5 D6 D7 D8
+ Q1 Q2 Q3 Q4 Q5 Q6 Q7 Q8O
+ $D_NC $D_NC $D_NC $D_NC $D_NC $D_NC $D_NC Q8BAR
+ D0_EFF IO_AS00 MNTYMXDLY={MNTYMXDLY} IO_LEVEL={IO_LEVEL}

U3 PINDLY(17,2,20) DPWR DGND
+ A1O A2O A3O A4O A5O A6O A7O A8O B1O B2O B3O B4O B5O B6O B7O B8O Q8BAR
+ ENABAB ENABBA
+ S0 S1 S2 CLK A1 A2 A3 A4 A5 A6 A7 A8 B1 B2 B3 B4 B5 B6 B7 B8
+ A1 A2 A3 A4 A5 A6 A7 A8 B1 B2 B3 B4 B5 B6 B7 B8 Q8
+ IO_AS00 MNTYMXDLY={MNTYMXDLY} IO_LEVEL={IO_LEVEL}
+ BOOLEAN:
+    SELECT = {CHANGED(S0,0) | CHANGED(S1,0) | CHANGED(S2,0)}
+    EDGE = {CHANGED_LH(CLK,0)}
+    BDATA = {CHANGED(B1,0) | CHANGED(B2,0) | CHANGED(B3,0) | CHANGED(B4,0) |
+             CHANGED(B5,0) | CHANGED(B6,0) | CHANGED(B7,0) | CHANGED(B8,0)}
+    ADATA = {CHANGED(A1,0) | CHANGED(A2,0) | CHANGED(A3,0) | CHANGED(A4,0) |
+             CHANGED(A5,0) | CHANGED(A6,0) | CHANGED(A7,0) | CHANGED(A8,0)}
+ TRISTATE:
+   ENABLE HI = ENABBA
+   A1 A2 A3 A4 A5 A6 A7 A8 = {
+     CASE(
+       TRN_HZ, DELAY(2NS,-1,6.5NS),
+       TRN_LZ, DELAY(3NS,-1,10.5NS),
+       TRN_ZH, DELAY(2NS,-1,7NS),
+       TRN_ZL, DELAY(3NS,-1,9.5NS),
+       SELECT & TRN_LH, DELAY(3NS,-1,10NS),
+       SELECT & TRN_HL, DELAY(2NS,-1,8NS),
+       EDGE & TRN_LH, DELAY(2NS,-1,9NS),
+       EDGE & TRN_HL, DELAY(3NS,-1,11.5NS),
+       BDATA & TRN_LH, DELAY(2NS,-1,7.5NS),
+       BDATA & TRN_HL, DELAY(3NS,-1,9NS),
+       DELAY(4NS,-1,12.5NS))}
+ TRISTATE:
+   ENABLE HI = ENABAB
+   B1 B2 B3 B4 B5 B6 B7 B8 = {
+     CASE(
+       TRN_HZ, DELAY(2NS,-1,6.5NS),
+       TRN_LZ, DELAY(3NS,-1,10.5NS),
+       TRN_ZH, DELAY(2NS,-1,7NS),
+       TRN_ZL, DELAY(3NS,-1,9.5NS),
+       SELECT & TRN_LH, DELAY(3NS,-1,10NS),
+       SELECT & TRN_HL, DELAY(2NS,-1,8NS),
+       EDGE & TRN_LH, DELAY(2NS,-1,9NS),
+       EDGE & TRN_HL, DELAY(3NS,-1,11.5NS),
+       ADATA & TRN_LH, DELAY(2NS,-1,7NS),
+       ADATA & TRN_HL, DELAY(3NS,-1,9NS),
+       DELAY(4NS,-1,12.5NS))}
+ PINDLY:
+    Q8 = {
+      CASE(
+        EDGE & TRN_LH, DELAY(2NS,-1,8NS),
+        EDGE & TRN_HL, DELAY(3NS,-1,8.5NS),
+        DELAY(4NS,-1,9.5NS))}

U4 CONSTRAINT(21) DPWR DGND
+ A1 A2 A3 A4 A5 A6 A7 A8 B1 B2 B3 B4 B5 B6 B7 B8 CLK SERIN S0 S1 S2
+ IO_AS00 IO_LEVEL={IO_LEVEL}
+ FREQ:
+   NODE = CLK
+   MAXFREQ = 50MEG
+ WIDTH:
+   NODE = CLK
+   MIN_LO = 10NS
+   MIN_HI = 10NS
+ SETUP_HOLD:
+   CLOCK LH = CLK
+   DATA(20) = A1 A2 A3 A4 A5 A6 A7 A8 B1 B2 B3 B4 B5 B6 B7 B8 SERIN S0 S1 S2
+   SETUPTIME = 5.5NS

.ENDS 74AS877
  
*-------------------------------------------------------------74ALS878A----

* Dual 4 Bit D-Type Edge Triggered Flip Flops with 3-State Outputs
* TI ALS/AS Logic Data Book, 1986, pages 2-755 to 2-760
* jat 3/26/96

.SUBCKT 74ALS878A
+ OCBAR CLK CLRBAR D1 D2 D3 D4 Q1 Q2 Q3 Q4
+ OPTIONAL: DPWR=$G_DPWR DGND=$G_DGND
+ PARAMS: MNTYMXDLY=0 IO_LEVEL=0

U0 LOGICEXP(5,4) DPWR DGND
+ D1 D2 D3 D4 CLRBAR
+ D1IN D2IN D3IN D4IN
+ D0_GATE IO_ALS00 MNTYMXDLY={MNTYMXDLY} IO_LEVEL={IO_LEVEL}
+ LOGIC:
+    D1IN = {CLRBAR & D1}
+    D2IN = {CLRBAR & D2}
+    D3IN = {CLRBAR & D3}
+    D4IN = {CLRBAR & D4}

U1 DFF(4) DPWR DGND
+ $D_HI CLRBAR CLK
+ D1IN D2IN D3IN D4IN Q1O Q2O Q3O Q4O $D_NC $D_NC $D_NC $D_NC
+ D0_EFF IO_ALS00 MNTYMXDLY={MNTYMXDLY} IO_LEVEL={IO_LEVEL}

U2 PINDLY(4,1,1) DPWR DGND
+ Q1O Q2O Q3O Q4O
+ OCBAR
+ CLK
+ Q1 Q2 Q3 Q4
+ IO_ALS00 MNTYMXDLY={MNTYMXDLY} IO_LEVEL={IO_LEVEL}
+ BOOLEAN:
+   CLOCK = {CHANGED_LH(CLK,0)}
+ TRISTATE:
+   ENABLE LO = OCBAR
+   Q1 Q2 Q3 Q4 = {
+     CASE(
+       TRN_ZH, DELAY(-1,9NS,13NS),
+       TRN_ZL, DELAY(-1,11NS,15NS),
+       TRN_HZ, DELAY(-1,6NS,8NS),
+       TRN_LZ, DELAY(-1,7NS,10NS),
+       CLOCK & TRN_LH, DELAY(-1,8NS,10NS),
+       CLOCK & TRN_HL, DELAY(-1,9NS,13NS),
+       DELAY(-1,12NS,16NS))}

U3 CONSTRAINT(6) DPWR DGND
+ CLRBAR CLK D1 D2 D3 D4
+ IO_ALS00 IO_LEVEL = {IO_LEVEL}
+ FREQ:
+   NODE = CLK
+   MAXFREQ = 30MEG
+ WIDTH:
+  NODE = CLK
+  MIN_HI = 16.5NS
+  MIN_LO = 16.5NS
+ SETUP_HOLD:
+  CLOCK LH = CLK
+  DATA(4) = D1 D2 D3 D4
+  SETUPTIME = 15NS
+  HOLDTIME = 4NS
+ SETUP_HOLD:
+  CLOCK LH = CLK
+  DATA(1) = CLRBAR
+  SETUPTIME_LO = 20NS

.ENDS 74ALS878A

*-------------------------------------------------------------74AS878----

* Dual 4 Bit D-Type Edge Triggered Flip Flops with 3-State Outputs
* TI ALS/AS Logic Data Book, 1986, pages 2-755 to 2-760
* jat 3/26/96

.SUBCKT 74AS878
+ OCBAR CLK CLRBAR D1 D2 D3 D4 Q1 Q2 Q3 Q4
+ OPTIONAL: DPWR=$G_DPWR DGND=$G_DGND
+ PARAMS: MNTYMXDLY=0 IO_LEVEL=0

U0 LOGICEXP(5,4) DPWR DGND
+ D1 D2 D3 D4 CLRBAR
+ D1IN D2IN D3IN D4IN
+ D0_GATE IO_AS00 MNTYMXDLY={MNTYMXDLY} IO_LEVEL={IO_LEVEL}
+ LOGIC:
+    D1IN = {CLRBAR & D1}
+    D2IN = {CLRBAR & D2}
+    D3IN = {CLRBAR & D3}
+    D4IN = {CLRBAR & D4}

U1 DFF(4) DPWR DGND
+ $D_HI CLRBAR CLK
+ D1IN D2IN D3IN D4IN Q1O Q2O Q3O Q4O $D_NC $D_NC $D_NC $D_NC
+ D0_EFF IO_AS00 MNTYMXDLY={MNTYMXDLY} IO_LEVEL={IO_LEVEL}

U2 PINDLY(4,1,1) DPWR DGND
+ Q1O Q2O Q3O Q4O
+ OCBAR
+ CLK
+ Q1 Q2 Q3 Q4
+ IO_AS00 MNTYMXDLY={MNTYMXDLY} IO_LEVEL={IO_LEVEL}
+ BOOLEAN:
+   CLOCK = {CHANGED_LH(CLK,0)}
+ TRISTATE:
+   ENABLE LO = OCBAR
+   Q1 Q2 Q3 Q4 = {
+     CASE(
+       TRN_ZH, DELAY(2NS,-1,7NS),
+       TRN_ZL, DELAY(3NS,-1,10.5NS),
+       TRN_HZ, DELAY(2NS,-1,6NS),
+       TRN_LZ, DELAY(2NS,-1,6NS),
+       CLOCK & TRN_LH, DELAY(3NS,-1,8.5NS),
+       CLOCK & TRN_HL, DELAY(4NS,-1,10.5NS),
+       DELAY(5NS,-1,11.5NS))}

U3 CONSTRAINT(6) DPWR DGND
+ CLRBAR CLK D1 D2 D3 D4
+ IO_AS00 IO_LEVEL = {IO_LEVEL}
+ FREQ:
+   NODE = CLK
+   MAXFREQ = 125MEG
+ WIDTH:
+  NODE = CLK
+  MIN_HI = 4NS
+  MIN_LO = 2NS
+ SETUP_HOLD:
+  CLOCK LH = CLK
+  DATA(4) = D1 D2 D3 D4
+  SETUPTIME = 2NS
+  HOLDTIME = 2NS
+ SETUP_HOLD:
+  CLOCK LH = CLK
+  DATA(1) = CLRBAR
+  SETUPTIME_LO = 5.5NS

.ENDS 74AS878

*-------------------------------------------------------------74ALS879A----

* Dual 4 Bit D-Type Edge Triggered Flip Flops with 3-State Outputs
* TI ALS/AS Logic Data Book, 1986, pages 2-755 to 2-760
* jat 3/26/96

.SUBCKT 74ALS879A
+ OCBAR CLK CLRBAR D1 D2 D3 D4 Q1BAR Q2BAR Q3BAR Q4BAR
+ OPTIONAL: DPWR=$G_DPWR DGND=$G_DGND
+ PARAMS: MNTYMXDLY=0 IO_LEVEL=0

U0 LOGICEXP(5,4) DPWR DGND
+ D1 D2 D3 D4 CLRBAR
+ D1IN D2IN D3IN D4IN
+ D0_GATE IO_ALS00 MNTYMXDLY={MNTYMXDLY} IO_LEVEL={IO_LEVEL}
+ LOGIC:
+    D1IN = {CLRBAR & D1}
+    D2IN = {CLRBAR & D2}
+    D3IN = {CLRBAR & D3}
+    D4IN = {CLRBAR & D4}

U1 DFF(4) DPWR DGND
+ $D_HI CLRBAR CLK
+ D1IN D2IN D3IN D4IN $D_NC $D_NC $D_NC $D_NC Q1BARO Q2BARO Q3BARO Q4BARO
+ D0_EFF IO_ALS00 MNTYMXDLY={MNTYMXDLY} IO_LEVEL={IO_LEVEL}

U2 PINDLY(4,1,1) DPWR DGND
+ Q1BARO Q2BARO Q3BARO Q4BARO
+ OCBAR
+ CLK
+ Q1BAR Q2BAR Q3BAR Q4BAR
+ IO_ALS00 MNTYMXDLY={MNTYMXDLY} IO_LEVEL={IO_LEVEL}
+ BOOLEAN:
+   CLOCK = {CHANGED_LH(CLK,0)}
+ TRISTATE:
+   ENABLE LO = OCBAR
+   Q1BAR Q2BAR Q3BAR Q4BAR = {
+     CASE(
+       TRN_ZH, DELAY(-1,9NS,13NS),
+       TRN_ZL, DELAY(-1,11NS,15NS),
+       TRN_HZ, DELAY(-1,6NS,8NS),
+       TRN_LZ, DELAY(-1,7NS,10NS),
+       CLOCK & TRN_LH, DELAY(-1,8NS,10NS),
+       CLOCK & TRN_HL, DELAY(-1,9NS,13NS),
+       DELAY(-1,12NS,16NS))}

U3 CONSTRAINT(6) DPWR DGND
+ CLRBAR CLK D1 D2 D3 D4
+ IO_ALS00 IO_LEVEL = {IO_LEVEL}
+ FREQ:
+   NODE = CLK
+   MAXFREQ = 30MEG
+ WIDTH:
+  NODE = CLK
+  MIN_HI = 16.5NS
+  MIN_LO = 16.5NS
+ SETUP_HOLD:
+  CLOCK LH = CLK
+  DATA(4) = D1 D2 D3 D4
+  SETUPTIME = 15NS
+  HOLDTIME = 4NS
+ SETUP_HOLD:
+  CLOCK LH = CLK
+  DATA(1) = CLRBAR
+  SETUPTIME_LO = 20NS

.ENDS 74ALS879A

*-------------------------------------------------------------74AS879----

* Dual 4 Bit D-Type Edge Triggered Flip Flops with 3-State Outputs
* TI ALS/AS Logic Data Book, 1986, pages 2-755 to 2-760
* jat 3/26/96

.SUBCKT 74AS879
+ OCBAR CLK CLRBAR D1 D2 D3 D4 Q1BAR Q2BAR Q3BAR Q4BAR
+ OPTIONAL: DPWR=$G_DPWR DGND=$G_DGND
+ PARAMS: MNTYMXDLY=0 IO_LEVEL=0

U0 LOGICEXP(5,4) DPWR DGND
+ D1 D2 D3 D4 CLRBAR
+ D1IN D2IN D3IN D4IN
+ D0_GATE IO_AS00 MNTYMXDLY={MNTYMXDLY} IO_LEVEL={IO_LEVEL}
+ LOGIC:
+    D1IN = {CLRBAR & D1}
+    D2IN = {CLRBAR & D2}
+    D3IN = {CLRBAR & D3}
+    D4IN = {CLRBAR & D4}

U1 DFF(4) DPWR DGND
+ $D_HI CLRBAR CLK
+ D1IN D2IN D3IN D4IN $D_NC $D_NC $D_NC $D_NC Q1BARO Q2BARO Q3BARO Q4BARO
+ D0_EFF IO_AS00 MNTYMXDLY={MNTYMXDLY} IO_LEVEL={IO_LEVEL}

U2 PINDLY(4,1,1) DPWR DGND
+ Q1BARO Q2BARO Q3BARO Q4BARO
+ OCBAR
+ CLK
+ Q1BAR Q2BAR Q3BAR Q4BAR
+ IO_AS00 MNTYMXDLY={MNTYMXDLY} IO_LEVEL={IO_LEVEL}
+ BOOLEAN:
+   CLOCK = {CHANGED_LH(CLK,0)}
+ TRISTATE:
+   ENABLE LO = OCBAR
+   Q1BAR Q2BAR Q3BAR Q4BAR = {
+     CASE(
+       TRN_ZH, DELAY(2NS,-1,7NS),
+       TRN_ZL, DELAY(3NS,-1,10.5NS),
+       TRN_HZ, DELAY(2NS,-1,6NS),
+       TRN_LZ, DELAY(2NS,-1,6NS),
+       CLOCK & TRN_LH, DELAY(3NS,-1,8.5NS),
+       CLOCK & TRN_HL, DELAY(4NS,-1,10.5NS),
+       DELAY(5NS,-1,11.5NS))}

U3 CONSTRAINT(6) DPWR DGND
+ CLRBAR CLK D1 D2 D3 D4
+ IO_AS00 IO_LEVEL = {IO_LEVEL}
+ FREQ:
+   NODE = CLK
+   MAXFREQ = 125MEG
+ WIDTH:
+  NODE = CLK
+  MIN_HI = 4NS
+  MIN_LO = 2NS
+ SETUP_HOLD:
+  CLOCK LH = CLK
+  DATA(4) = D1 D2 D3 D4
+  SETUPTIME = 2NS
+  HOLDTIME = 2NS
+ SETUP_HOLD:
+  CLOCK LH = CLK
+  DATA(1) = CLRBAR
+  SETUPTIME_LO = 5.5NS

.ENDS 74AS879

*-------------------------------------------------------------74ALS880A----

* Dual 4 Bit D-Type Latches with 3-State Outputs
* TI ALS/AS Logic Data Book, 1986, pages 2-761 to 2-767
* jat 3/26/96

.SUBCKT 74ALS880A
+ OCBAR C PREBAR D1 D2 D3 D4 Q1BAR Q2BAR Q3BAR Q4BAR
+ OPTIONAL: DPWR=$G_DPWR DGND=$G_DGND
+ PARAMS: MNTYMXDLY=0 IO_LEVEL=0

U1 DLTCH(4) DPWR DGND
+ PREBAR $D_HI C
+ D1 D2 D3 D4 $D_NC $D_NC $D_NC $D_NC Q1BARO Q2BARO Q3BARO Q4BARO
+ D0_GFF IO_ALS00 MNTYMXDLY={MNTYMXDLY} IO_LEVEL={IO_LEVEL}

U2 PINDLY(4,1,6) DPWR DGND
+ Q1BARO Q2BARO Q3BARO Q4BARO
+ OCBAR
+ C D1 D2 D3 D4 PREBAR
+ Q1BAR Q2BAR Q3BAR Q4BAR
+ IO_ALS00 MNTYMXDLY={MNTYMXDLY} IO_LEVEL={IO_LEVEL}
+ BOOLEAN:
+   LATCH = {CHANGED(C,0)}
+   DATA = {CHANGED(D1,0) | CHANGED(D2,0) | CHANGED(D3,0) | CHANGED(D4,0)}
+   SET = {CHANGED_HL(PREBAR,0)}
+ TRISTATE:
+   ENABLE LO = OCBAR
+   Q1BAR Q2BAR Q3BAR Q4BAR = {
+     CASE(
+       TRN_ZH, DELAY(-1,12NS,15NS),
+       TRN_ZL, DELAY(-1,13NS,17NS),
+       TRN_HZ, DELAY(-1,6NS,9NS),
+       TRN_LZ, DELAY(-1,8NS,11NS),
+       SET & TRN_HL, DELAY(-1,12NS,16NS),
+       LATCH & TRN_LH, DELAY(-1,17NS,22NS),
+       LATCH & TRN_HL, DELAY(-1,14NS,18NS),
+       DATA & TRN_LH, DELAY(-1,14NS,19NS),
+       DATA & TRN_HL, DELAY(-1,9NS,12NS),
+       DELAY(-1,18NS,23NS))}

U3 CONSTRAINT(6) DPWR DGND
+ PREBAR C D1 D2 D3 D4
+ IO_ALS00 IO_LEVEL = {IO_LEVEL}
+ WIDTH:
+  NODE = C
+  MIN_HI = 15NS
+ WIDTH:
+  NODE = PREBAR
+  MIN_LO = 15NS
+ SETUP_HOLD:
+  CLOCK HL = C
+  DATA(4) = D1 D2 D3 D4
+  SETUPTIME = 10NS
+  HOLDTIME = 10NS

.ENDS 74ALS880A

*-------------------------------------------------------------74AS880----

* Dual 4 Bit D-Type Latches with 3-State Outputs
* TI ALS/AS Logic Data Book, 1986, pages 2-761 to 2-767
* jat 3/26/96

.SUBCKT 74AS880
+ OCBAR C PREBAR D1 D2 D3 D4 Q1BAR Q2BAR Q3BAR Q4BAR
+ OPTIONAL: DPWR=$G_DPWR DGND=$G_DGND
+ PARAMS: MNTYMXDLY=0 IO_LEVEL=0

U1 DLTCH(4) DPWR DGND
+ PREBAR $D_HI C
+ D1 D2 D3 D4 $D_NC $D_NC $D_NC $D_NC Q1BARO Q2BARO Q3BARO Q4BARO
+ D0_GFF IO_AS00 MNTYMXDLY={MNTYMXDLY} IO_LEVEL={IO_LEVEL}

U2 PINDLY(4,1,6) DPWR DGND
+ Q1BARO Q2BARO Q3BARO Q4BARO
+ OCBAR
+ C D1 D2 D3 D4 PREBAR
+ Q1BAR Q2BAR Q3BAR Q4BAR
+ IO_AS00 MNTYMXDLY={MNTYMXDLY} IO_LEVEL={IO_LEVEL}
+ BOOLEAN:
+   LATCH = {CHANGED(C,0)}
+   DATA = {CHANGED(D1,0) | CHANGED(D2,0) | CHANGED(D3,0) | CHANGED(D4,0)}
+   SET = {CHANGED_HL(PREBAR,0)}
+ TRISTATE:
+   ENABLE LO = OCBAR
+   Q1BAR Q2BAR Q3BAR Q4BAR = {
+     CASE(
+       TRN_ZH, DELAY(2NS,-1,7.5NS),
+       TRN_ZL, DELAY(4NS,-1,10NS),
+       TRN_HZ, DELAY(2NS,-1,6.5NS),
+       TRN_LZ, DELAY(2NS,-1,8NS),
+       SET & TRN_HL, DELAY(4NS,-1,10NS),
+       LATCH & TRN_LH, DELAY(6NS,-1,11.5NS),
+       LATCH & TRN_HL, DELAY(4NS,-1,8NS),
+       DATA & TRN_LH, DELAY(4NS,-1,9.5NS),
+       DATA & TRN_HL, DELAY(4NS,-1,8.5NS),
+       DELAY(7NS,-1,12.5NS))}

U3 CONSTRAINT(6) DPWR DGND
+ PREBAR C D1 D2 D3 D4
+ IO_AS00 IO_LEVEL = {IO_LEVEL}
+ WIDTH:
+  NODE = C
+  MIN_HI = 2.5NS
+ WIDTH:
+  NODE = PREBAR
+  MIN_LO = 3.5NS
+ SETUP_HOLD:
+  CLOCK HL = C
+  DATA(4) = D1 D2 D3 D4
+  SETUPTIME = 2NS
+  HOLDTIME = 1NS

.ENDS 74AS880

* ----------------------------------------------------------- 74AS881A ------
*  Arithmetic Logic Units/Function Generators
*
*  The ALS/AS Logic Data Book, 1986, TI Pages 2-187 to 2-196
*  bss    6/21/94
*
.SUBCKT 74AS881A S0 S1 S2 S3 M CN A0BAR A1BAR A2BAR A3BAR B0BAR B1BAR B2BAR 
+     B3BAR GBAR CN4 PBAR AEQUALB F0BAR F1BAR F2BAR F3BAR
+     optional:  DPWR=$G_DPWR DGND=$G_DGND
+     params:  MNTYMXDLY=0 IO_LEVEL=0

U1LOG LOGICEXP(14,8) DPWR DGND
+     S0 S1 S2 S3 M CN A0BAR A1BAR A2BAR A3BAR B0BAR B1BAR B2BAR B3BAR
+     GBAR_O CN4_O PBAR_O AEQUALB_O F0BAR_O F1BAR_O F2BAR_O F3BAR_O
+     D0_GATE IO_AS00 MNTYMXDLY={MNTYMXDLY} IO_LEVEL={IO_LEVEL}
+
+  LOGIC:
+     b0 = {~B0BAR}
+     b1 = {~B1BAR}
+     b2 = {~B2BAR}
+     b3 = {~B3BAR}
+     mbar = {~M}
+     in0a = {~((b0 & S1) | (S0 & B0BAR) | A0BAR)}
+     in0b = {~((B0BAR & S3 & A0BAR) | (A0BAR & S2 & b0))}
+     in1a = {~((b1 & S1) | (S0 & B1BAR) | A1BAR)}
+     in1b = {~((B1BAR & S3 & A1BAR) | (A1BAR & S2 & b1))}
+     in2a = {~((b2 & S1) | (S0 & B2BAR) | A2BAR)}
+     in2b = {~((B2BAR & S3 & A2BAR) | (A2BAR & S2 & b2))}
+     in3a = {~((b3 & S1) | (S0 & B3BAR) | A3BAR)}
+     in3b = {~((B3BAR & S3 & A3BAR) | (A3BAR & S2 & b3))}
+     xor0 = {in0a ^ in0b}
+     xor1 = {in1a ^ in1b}
+     xor2 = {in2a ^ in2b}
+     xor3 = {in3a ^ in3b}
+     GBAR_O = {~((mbar & in3a) | (mbar & in3b & in2a) | (mbar & in3b & in2b & in1a) |
+         (mbar & in3b & in2b & in1b & in0a))}
+     f0in = {~(mbar & CN)}
+     F0BAR_O = {f0in ^ xor0}
+     f1in = {~((CN & mbar & in0b) | (in0a & mbar))}
+     F1BAR_O = {f1in ^ xor1}
+     f2in = {~((CN & in0b & in1b & mbar) | (in1b & mbar & in0a) | (in1a & mbar))}
+     F2BAR_O = {f2in ^ xor2}
+     f3in = {~((CN & in0b & in1b & in2b & mbar) | (in1b & in2b & in0a & mbar) |
+         (in2b & in1a & mbar) | (in2a & mbar))}
+     F3BAR_O = {f3in ^ xor3}
+     AEQUALB_O = {F3BAR_O & F2BAR_O & F1BAR_O & F0BAR_O}
+     cn4in = {~((M & F0BAR_O & F1BAR_O & F2BAR_O & F3BAR_O & CN) |
+         (mbar & in3b & in2b & in1b & in0b & CN))}
+     CN4_O = {~(cn4in & GBAR_O)}
+     PBAR_O = {~((M & F0BAR_O & F1BAR_O & F2BAR_O & F3BAR_O) |
+         (mbar & in3b & in2b & in1b & in0b))}

U2DLY PINDLY(7,0,14) DPWR DGND
+     GBAR_O CN4_O PBAR_O F0BAR_O F1BAR_O F2BAR_O F3BAR_O
+     A0BAR A1BAR A2BAR A3BAR B0BAR B1BAR B2BAR B3BAR M CN S0 S1 S2 S3
+     GBAR CN4 PBAR F0BAR F1BAR F2BAR F3BAR
+     IO_AS00 MNTYMXDLY={MNTYMXDLY} IO_LEVEL={IO_LEVEL}
+
+  BOOLEAN:
+     DATA0 = {CHANGED(A0BAR,0) | CHANGED(B0BAR,0)}
+     DATA1 = {CHANGED(A1BAR,0) | CHANGED(B1BAR,0)}
+     DATA2 = {CHANGED(A2BAR,0) | CHANGED(B2BAR,0)}
+     DATA3 = {CHANGED(A3BAR,0) | CHANGED(B3BAR,0)}
+     DATA = {DATA0 | DATA1 | DATA2 | DATA3}
+     CARRY = {CHANGED(CN,0)}
+     SUM = {S0=='1 & S1=='0 & S2=='0 & S3=='1}
+     DIFF = {S0=='0 & S1=='1 & S2=='1 & S3=='0}
+     MHI = {M=='1}
+     MLO = {M=='0}
+     CNHI = {CN=='1}
+     S2HI = {S0=='0 & S1=='0 & S2=='1 & S3=='0}
+
+  PINDLY:
+     F0BAR F1BAR F2BAR F3BAR = {
+       CASE(
+         CARRY & MLO, DELAY(3ns,6ns,9ns),
+         DATA & MLO & SUM, DELAY(2ns,5ns,8ns),
+         DATA & MLO & DIFF, DELAY(2ns,6ns,10ns),
+         MHI, DELAY(2ns,6ns,11ns),
+         DELAY(2ns,6ns,10ns))}
+
+     GBAR = {
+       CASE(
+         DATA & MLO & SUM, DELAY(2ns,5ns,7ns),
+         DATA & MLO & DIFF, DELAY(2ns,6ns,9ns),
+         DELAY(2ns,6ns,9ns))}
+
+     CN4 = {
+       CASE(
+         DATA & CNHI & MHI & SUM, DELAY(2ns,12ns,18ns),
+         DATA & CNHI & MHI & S2HI, DELAY(2ns,13ns,19ns),
+         DATA & MLO & SUM, DELAY(2ns,8ns,12ns),
+         DATA & MLO & DIFF, DELAY(2ns,8ns,16ns),
+         CARRY, DELAY(2ns,7ns,9ns),
+         DELAY(2ns,8ns,16ns))}
+
+     PBAR = {
+       CASE(
+         DATA & CNHI & MHI & SUM, DELAY(2ns,10ns,15ns),
+         DATA & CNHI & MHI & S2HI, DELAY(2ns,10ns,15ns),
+         DATA & MLO & SUM, DELAY(2ns,6ns,8ns),
+         DATA & MLO & DIFF, DELAY(2ns,6ns,10ns),
+         DELAY(2ns,6ns,11ns))}

U3DLY PINDLY(1,0,0) DPWR DGND
+     AEQUALB_O
+     AEQUALB
+     IO_AS00_OC MNTYMXDLY={MNTYMXDLY} IO_LEVEL={IO_LEVEL}
+
+  PINDLY:
+     AEQUALB = {
+       CASE(
+         DELAY(4ns,14ns,21ns))}

.ENDS 74AS881A

* -----------------------------------------------------------74AS881B------

* 4-Bit Arithmetic Logic Unit/Function Generator
* National ALS/AS Logic Databook, 1990, pages 3-195 to 3-206
* jat 8/21/96

.SUBCKT 74AS881B
+ S0 S1 S2 S3 A0BAR A1BAR A2BAR A3BAR B0BAR B1BAR B2BAR B3BAR M CN
+ GBAR CN4 PBAR AEQUALB F0BAR F1BAR F2BAR F3BAR
+ OPTIONAL: DPWR=$G_DPWR DGND=$G_DGND
+ PARAMS: MNTYMXDLY=0 IO_LEVEL=0

U1 LOGICEXP(14,8) DPWR DGND
+ S0 S1 S2 S3 A0BAR A1BAR A2BAR A3BAR B0BAR B1BAR B2BAR B3BAR M CN
+ GBARO CN4O PBARO F3BARO F2BARO F1BARO F0BARO AEQUALBO
+ D0_GATE IO_AS00 MNTYMXDLY={MNTYMXDLY} IO_LEVEL={IO_LEVEL}
+ LOGIC:
+   NORB3 = {~((B3BAR & S3 & A3BAR) | (A3BAR & S2 & ~B3BAR))}
+   NORA3 = {~((~B3BAR & S1) | (S0 & B3BAR) | A3BAR)}
+   NORB2 = {~((B2BAR & S3 & A2BAR) | (A2BAR & S2 & ~B2BAR))}
+   NORA2 = {~((~B2BAR & S1) | (S0 & B2BAR) | A2BAR)}
+   NORB1 = {~((B1BAR & S3 & A1BAR) | (A1BAR & S2 & ~B1BAR))}
+   NORA1 = {~((~B1BAR & S1) | (S0 & B1BAR) | A1BAR)}
+   NORB0 = {~((B0BAR & S3 & A0BAR) | (A0BAR & S2 & ~B0BAR))}
+   NORA0 = {~((~B0BAR & S1) | (S0 & B0BAR) | A0BAR)}
+   XOR3 = {NORB3 ^ NORA3}
+   XOR2 = {NORB2 ^ NORA2}
+   XOR1 = {NORB1 ^ NORA1}
+   XOR0 = {NORB0 ^ NORA0}
+   NORF3 = {~((CN & NORB2 & NORB1 & NORB0 & ~M) | (NORB2 & NORB1 & NORA0 & ~M) |
+              (NORB2 & NORA1 & ~M) | (NORA2 & ~M))}
+   NORF2 = {~((CN & NORB0 & NORB1 & ~M) | (NORB1 & NORA0 & ~M) | (NORA1 & ~M))}
+   NORF1 = {~((CN & NORB0 & ~M) | (NORA0 & ~M))}
+   F3BARO = {NORF3 ^ XOR3}
+   F2BARO = {NORF2 ^ XOR2}
+   F1BARO = {NORF1 ^ XOR1}
+   F0BARO = {XOR0 ^ (~(CN & ~M))}
+   AEQUALBO = {F3BARO & F2BARO & F1BARO & F0BARO}
+   GBARO = {~((~M & NORA3) | (~M & NORB3 & NORA2) | (~M & NORB3 & NORB2 & NORA1) |
+             (~M & NORB3 & NORB2 & NORB1 & NORA0))}
+   X = {M & F0BARO & F1BARO & F2BARO & F3BARO}
+   CN4O = {~GBARO | ((X & CN) | (~M & NORB3 & NORB2 & NORB1 & NORB0 & CN))}
+   PBARO = {~((NORB3 & NORB2 & NORB1 & NORB0 & ~M) | X)}

U2 PINDLY(8,0,14) DPWR DGND
+ GBARO CN4O PBARO AEQUALBO F3BARO F2BARO F1BARO F0BARO
+ M S0 S1 S2 S3 A0BAR A1BAR A2BAR A3BAR B0BAR B1BAR B2BAR B3BAR CN
+ GBAR CN4 PBAR AEQUALBUB F3BAR F2BAR F1BAR F0BAR
+ IO_AS00 MNTYMXDLY={MNTYMXDLY} IO_LEVEL={IO_LEVEL}
+ BOOLEAN:
+   DATA = {CHANGED(A0BAR,0) | CHANGED(A1BAR,0) | CHANGED(A2BAR,0) | CHANGED(A3BAR,0) |
+           CHANGED(B0BAR,0) | CHANGED(B1BAR,0) | CHANGED(B2BAR,0) | CHANGED(B3BAR,0)}
+   CARRY = {CHANGED(CN,0)}
+ PINDLY:
+   GBAR = {
+     CASE(
+       DATA & M == '0 & S1 == '0 & S2 == '0 & S0 == '1 & S3 == '1 &
+         TRN_LH, DELAY(2NS,-1,10NS),
+       DATA & M == '0 & S1 == '0 & S2 == '0 & S0 == '1 & S3 == '1 &
+         TRN_HL, DELAY(2NS,-1,10NS),
+       DATA & M == '0 & S1 == '1 & S2 == '1 & S0 == '0 & S3 == '0 &
+         TRN_LH, DELAY(2NS,-1,12NS),
+       DATA & M == '0 & S1 == '1 & S2 == '1 & S0 == '0 & S3 == '0 &
+         TRN_HL, DELAY(2NS,-1,12NS),
+       DELAY(3NS,-1,13NS))}
+   CN4 = {
+     CASE(
+       DATA & M == '0 & S1 == '0 & S2 == '0 & S0 == '1 & S3 == '1 &
+         TRN_LH, DELAY(2NS,-1,15NS),
+       DATA & M == '0 & S1 == '0 & S2 == '0 & S0 == '1 & S3 == '1 &
+         TRN_HL, DELAY(2NS,-1,15NS),
+       DATA & M == '0 & S1 == '1 & S2 == '1 & S0 == '0 & S3 == '0 &