* Digital Demo Library
* ----------------------------------------------------------- 7400 ------
*  Quad 2-Input Nand Gates
*
*  The TTL Logic Data Book, 1988, TI Pages 2-3 to 2-7
*  bss    2/2/94
*
.SUBCKT 7400  1A 1B 1Y
+     optional: DPWR=$G_DPWR DGND=$G_DGND
+     params: MNTYMXDLY=0 IO_LEVEL=0

U1 nand(2) DPWR DGND
+     1A 1B 1Y
+     DLY_00 IO_STD MNTYMXDLY={MNTYMXDLY} IO_LEVEL={IO_LEVEL}

.model DLY_00 ugate (tplhTY=11ns tplhMX=22ns tphlTY=7ns tphlMX=15ns)

.ENDS  7400
*
*
* ----------------------------------------------------------- 7401 ------
*  Quad 2-Input Nand Gates With Open-Collector Outputs
*
*  The TTL Logic Data Book, 1988, TI Pages 2-9 to 2-12
*  bss    2/3/94
*
.SUBCKT 7401  1A 1B 1Y
+     optional: DPWR=$G_DPWR DGND=$G_DGND
+     params: MNTYMXDLY=0 IO_LEVEL=0

U1 nand(2) DPWR DGND
+     1A 1B 1Y
+     DLY_01 IO_STD_OC MNTYMXDLY={MNTYMXDLY} IO_LEVEL={IO_LEVEL}

.model DLY_01 ugate (tplhTY=35ns tplhMX=55ns tphlTY=8ns tphlMX=15ns)

.ENDS  7401
*
*
* ----------------------------------------------------------- 7402 ------
*  Quad 2-Input Nor Gates
*
*  The TTL Logic Data Book, 1988, TI Pages 2-13 to 2-17
*  bss    2/3/94
*
.SUBCKT 7402  1A 1B 1Y
+     optional: DPWR=$G_DPWR DGND=$G_DGND
+     params: MNTYMXDLY=0 IO_LEVEL=0

U1 nor(2) DPWR DGND
+     1A 1B 1Y
+     DLY_02 IO_STD MNTYMXDLY={MNTYMXDLY} IO_LEVEL={IO_LEVEL}

.model DLY_02 ugate (tplhTY=12ns tplhMX=22ns tphlTY=8ns tphlMX=15ns)

.ENDS  7402
*
*
* ----------------------------------------------------------- 7403 ------
*  Quad 2-Input Nand Gates With Open-Collector Outputs
*
*  The TTL Logic Data Book, 1988, TI Pages 2-19 to 2-23
*  bss    2/3/94
*
.SUBCKT 7403  1A 1B 1Y
+     optional: DPWR=$G_DPWR DGND=$G_DGND
+     params: MNTYMXDLY=0 IO_LEVEL=0

U1 nand(2) DPWR DGND
+     1A 1B 1Y
+     DLY_03 IO_STD_OC MNTYMXDLY={MNTYMXDLY} IO_LEVEL={IO_LEVEL}

.model DLY_03 ugate (tplhTY=35ns tplhMX=45ns tphlTY=8ns tphlMX=15ns)

.ENDS  7403
*
*
* ----------------------------------------------------------- 7404 ------
*  Hex Inverters
*
*  The TTL Logic Data Book, 1988, TI Pages 2-25 to 2-29
*  bss    2/3/94
*
.SUBCKT 7404  1A  1Y
+     optional: DPWR=$G_DPWR DGND=$G_DGND
+     params: MNTYMXDLY=0 IO_LEVEL=0

U1 inv DPWR DGND
+     1A 1Y
+     DLY_04 IO_STD MNTYMXDLY={MNTYMXDLY} IO_LEVEL={IO_LEVEL}

.model DLY_04 ugate (tplhTY=12ns tplhMX=22ns tphlTY=8ns tphlMX=15ns)

.ENDS  7404
*
*
* ----------------------------------------------------------- 7405 ------
*  Hex Inverters With Open-Collector Outputs
*
*  The TTL Logic Data Book, 1988, TI Pages 2-31 to 2-35
*  bss    2/3/94
*
.SUBCKT 7405  1A  1Y
+     optional: DPWR=$G_DPWR DGND=$G_DGND
+     params: MNTYMXDLY=0 IO_LEVEL=0

U1 inv DPWR DGND
+     1A 1Y
+     DLY_05 IO_STD_OC MNTYMXDLY={MNTYMXDLY} IO_LEVEL={IO_LEVEL}

.model DLY_05 ugate (tplhTY=40ns tplhMX=55ns tphlTY=8ns tphlMX=15ns)

.ENDS  7405
*
*
* ----------------------------------------------------------- 7406 ------
*  Hex Inverter Buffers/Drivers With Open-Collector High-Voltage Outputs
*
*  The TTL Logic Data Book, 1988, TI Pages 2-37 to 2-38
*  bss    2/3/94
*
.SUBCKT 7406  1A  1Y
+     optional: DPWR=$G_DPWR DGND=$G_DGND
+     params: MNTYMXDLY=0 IO_LEVEL=0

U1 inv DPWR DGND
+     1A 1Y
+     DLY_06 IO_STD_OC MNTYMXDLY={MNTYMXDLY} IO_LEVEL={IO_LEVEL}

.model DLY_06 ugate (tplhTY=10ns tplhMX=15ns tphlTY=15ns tphlMX=23ns)

.ENDS  7406
*
*
* ----------------------------------------------------------- 7407 ------
*  Hex Buffers/Drivers With Open-Collector High-Voltage Outputs
*
*  The TTL Logic Data Book, 1988, TI Pages 2-39 to 2-40
*  bss    2/3/94
*
.SUBCKT 7407  1A  1Y
+     optional: DPWR=$G_DPWR DGND=$G_DGND
+     params: MNTYMXDLY=0 IO_LEVEL=0

U1 buf DPWR DGND
+     1A 1Y
+     DLY_07 IO_STD_OC MNTYMXDLY={MNTYMXDLY} IO_LEVEL={IO_LEVEL}

.model DLY_07 ugate (tplhTY=6ns tplhMX=15ns tphlTY=20ns tphlMX=26ns)

.ENDS  7407
*
*
* ----------------------------------------------------------- 7408 ------
*  Quad 2-Input And Gates   
*
*  The TTL Logic Data Book, 1988, TI Pages 2-41 to 2-45
*  bss    2/3/94
*
.SUBCKT 7408  1A 1B  1Y
+     optional: DPWR=$G_DPWR DGND=$G_DGND
+     params: MNTYMXDLY=0 IO_LEVEL=0

U1 and(2) DPWR DGND
+     1A 1B 1Y
+     DLY_08 IO_STD MNTYMXDLY={MNTYMXDLY} IO_LEVEL={IO_LEVEL}

.model DLY_08 ugate (tplhTY=17.5ns tplhMX=27ns tphlTY=12ns tphlMX=19ns)

.ENDS  7408
*
*
* ----------------------------------------------------------- 7409 ------
*  Quad 2-Input And Gates With Open-Collector Outputs   
*
*  The TTL Logic Data Book, 1988, TI Pages 2-47 to 2-51
*  bss    2/4/94
*
.SUBCKT 7409  1A 1B  1Y
+     optional: DPWR=$G_DPWR DGND=$G_DGND
+     params: MNTYMXDLY=0 IO_LEVEL=0

U1 and(2) DPWR DGND
+     1A 1B 1Y
+     DLY_09 IO_STD_OC MNTYMXDLY={MNTYMXDLY} IO_LEVEL={IO_LEVEL}

.model DLY_09 ugate (tplhTY=21ns tplhMX=32ns tphlTY=16ns tphlMX=24ns)

.ENDS  7409
*
*
* ----------------------------------------------------------- 7410 ------
*  Triple 3-Input Nand Gates
*
*  The TTL Logic Data Book, 1988, TI Pages 2-53 to 2-57
*  bss    2/4/94
*
.SUBCKT 7410  1A 1B 1C 1Y
+     optional: DPWR=$G_DPWR DGND=$G_DGND
+     params: MNTYMXDLY=0 IO_LEVEL=0

U1 nand(3) DPWR DGND
+     1A 1B 1C 1Y
+     DLY_10 IO_STD MNTYMXDLY={MNTYMXDLY} IO_LEVEL={IO_LEVEL}

.model DLY_10 ugate (tplhTY=11ns tplhMX=22ns tphlTY=7ns tphlMX=15ns)

.ENDS  7410
*
*
* ----------------------------------------------------------- 7412 ------
*  Triple 3-Input Nand Gates With Open-Collector Outputs
*
*  The TTL Logic Data Book, 1988, TI Pages 2-63 to 2-66
*  bss    2/4/94
*
.SUBCKT 7412  1A 1B 1C 1Y
+     optional: DPWR=$G_DPWR DGND=$G_DGND
+     params: MNTYMXDLY=0 IO_LEVEL=0

U1 nand(3) DPWR DGND
+     1A 1B 1C 1Y
+     DLY_12 IO_STD_OC MNTYMXDLY={MNTYMXDLY} IO_LEVEL={IO_LEVEL}

.model DLY_12 ugate (tplhTY=35ns tplhMX=45ns tphlTY=8ns tphlMX=15ns)

.ENDS  7412
*
*
* ----------------------------------------------------------- 7413 ------
*  Dual 4-Input Nand Schmitt Triggers
*
*  The TTL Logic Data Book, 1988, TI Pages 2-67 to 2-75
*  bss    2/4/94
*
.SUBCKT 7413  1A 1B 1C 1D 1Y
+     optional: DPWR=$G_DPWR DGND=$G_DGND
+     params: MNTYMXDLY=0 IO_LEVEL=0

U1 nand(4) DPWR DGND
+     1A 1B 1C 1D 1Y
+     DLY_13 IO_STD_ST MNTYMXDLY={MNTYMXDLY} IO_LEVEL={IO_LEVEL}

.model DLY_13 ugate (tplhTY=18ns tplhMX=27ns tphlTY=15ns tphlMX=22ns)

.ENDS  7413
*
*
* ----------------------------------------------------------- 7414 ------
*  Hex Schmitt-Trigger Inverters
*
*  The TTL Logic Data Book, 1988, TI Pages 2-77 to 2-85
*  bss    2/4/94
*
.SUBCKT 7414  1A  1Y
+     optional: DPWR=$G_DPWR DGND=$G_DGND
+     params: MNTYMXDLY=0 IO_LEVEL=0

U1 inv DPWR DGND
+     1A  1Y
+     DLY_14 IO_STD_ST MNTYMXDLY={MNTYMXDLY} IO_LEVEL={IO_LEVEL}

.model DLY_14 ugate (tplhTY=15ns tplhMX=22ns tphlTY=15ns tphlMX=22ns)

.ENDS  7414
*
*
* ----------------------------------------------------------- 7416 ------
*  Hex Inverter Buffers/Drivers With Open-Collector High-Voltage Outputs
*
*  The TTL Logic Data Book, 1988, TI Pages 2-37 to 2-38
*  bss    2/3/94
*
.SUBCKT 7416  1A  1Y
+     optional: DPWR=$G_DPWR DGND=$G_DGND
+     params: MNTYMXDLY=0 IO_LEVEL=0

U1 inv DPWR DGND
+     1A 1Y
+     DLY_16 IO_STD_OC MNTYMXDLY={MNTYMXDLY} IO_LEVEL={IO_LEVEL}

.model DLY_16 ugate (tplhTY=10ns tplhMX=15ns tphlTY=15ns tphlMX=23ns)

.ENDS  7416
*
*
* ----------------------------------------------------------- 7417 ------
*  Hex Buffers/Drivers With Open-Collector High-Voltage Outputs
*
*  The TTL Logic Data Book, 1988, TI Pages 2-39 to 2-40
*  bss    2/3/94
*
.SUBCKT 7417  1A  1Y
+     optional: DPWR=$G_DPWR DGND=$G_DGND
+     params: MNTYMXDLY=0 IO_LEVEL=0

U1 buf DPWR DGND
+     1A 1Y
+     DLY_17 IO_STD_OC MNTYMXDLY={MNTYMXDLY} IO_LEVEL={IO_LEVEL}

.model DLY_17 ugate (tplhTY=6ns tplhMX=15ns tphlTY=20ns tphlMX=26ns)

.ENDS  7417
*
*
* ----------------------------------------------------------- 7420 ------
*  Dual 4-Input Nand Gates 
*
*  The TTL Logic Data Book, 1988, TI Pages 2-95 to 2-99
*  bss    2/4/94
*
.SUBCKT 7420  1A 1B 1C 1D 1Y
+     optional: DPWR=$G_DPWR DGND=$G_DGND
+     params: MNTYMXDLY=0 IO_LEVEL=0

U1 nand(4) DPWR DGND
+     1A 1B 1C 1D 1Y
+     DLY_20 IO_STD MNTYMXDLY={MNTYMXDLY} IO_LEVEL={IO_LEVEL}

.model DLY_20 ugate (tplhTY=12ns tplhMX=22ns tphlTY=8ns tphlMX=15ns)

.ENDS  7420
*
*
* ----------------------------------------------------------- 7422 ------
*  Dual 4-Input Nand Gates With Open-Collector Outputs 
*
*  The TTL Logic Data Book, 1988, TI Pages 2-105 to 2-109
*  bss    2/4/94
*
.SUBCKT 7422  1A 1B 1C 1D 1Y
+     optional: DPWR=$G_DPWR DGND=$G_DGND
+     params: MNTYMXDLY=0 IO_LEVEL=0

U1 nand(4) DPWR DGND
+     1A 1B 1C 1D 1Y
+     DLY_22 IO_STD MNTYMXDLY={MNTYMXDLY} IO_LEVEL={IO_LEVEL}

.model DLY_22 ugate (tplhTY=35ns tplhMX=45ns tphlTY=8ns tphlMX=15ns)

.ENDS  7422
*
*
* ----------------------------------------------------------- 7423 ------
*  Dual 4-Input Nor Gates With Strobe (One Gate Expandable)
*
*  The TTL Logic Data Book, 1988, TI Pages 2-111 to 2-113
*  bss    2/14/94
*  The X inputs must come from a 60 gate
*
.SUBCKT 7423  1G 1A 1B 1C 1D 1X 1XBAR 2G 2A 2B 2C 2D 1Y 2Y
+     optional: DPWR=$G_DPWR DGND=$G_DGND
+     params: MNTYMXDLY=0 IO_LEVEL=0

U1 inv DPWR DGND
+     1XBAR 1XB
+     D0_GATE IO_STD MNTYMXDLY={MNTYMXDLY} IO_LEVEL={IO_LEVEL}

U2 aoi(2,5) DPWR DGND
+     1A 1G
+     1B 1G
+     1C 1G
+     1D 1G
+     1X 1XB
+     1Y
+     DLY_23 IO_STD MNTYMXDLY={MNTYMXDLY} IO_LEVEL={IO_LEVEL}

U3 aoi(2,4) DPWR DGND
+     2A 2G
+     2B 2G
+     2C 2G
+     2D 2G
+     2Y
+     DLY_23 IO_STD MNTYMXDLY={MNTYMXDLY} IO_LEVEL={IO_LEVEL}

.model DLY_23 ugate (tplhTY=13ns tplhMX=22ns tphlTY=8ns tphlMX=15ns)

.ENDS  7423
*
*
* ----------------------------------------------------------- 7425 ------
*  Dual 4-Input Nor Gates With Strobe
*
*  The TTL Logic Data Book, 1988, TI Pages 2-111 to 2-113
*  bss    2/14/94
*
.SUBCKT 7425  1G 1A 1B 1C 1D 1Y
+     optional: DPWR=$G_DPWR DGND=$G_DGND
+     params: MNTYMXDLY=0 IO_LEVEL=0

U1 aoi(2,4) DPWR DGND
+     1A 1G
+     1B 1G
+     1C 1G
+     1D 1G
+     1Y
+     DLY_25 IO_STD MNTYMXDLY={MNTYMXDLY} IO_LEVEL={IO_LEVEL}

.model DLY_25 ugate (tplhTY=13ns tplhMX=22ns tphlTY=8ns tphlMX=15ns)

.ENDS  7425
*
*
* ----------------------------------------------------------- 7426 ------
*  Quad 2-Input High-Voltage Interface Nand Gates
*
*  The TTL Logic Data Book, 1988, TI Pages 2-115 to 2-118
*  bss    2/7/94
*
.SUBCKT 7426  1A 1B 1Y
+     optional: DPWR=$G_DPWR DGND=$G_DGND
+     params: MNTYMXDLY=0 IO_LEVEL=0

U1 nand(2) DPWR DGND
+     1A 1B 1Y
+     DLY_26 IO_STD_OC MNTYMXDLY={MNTYMXDLY} IO_LEVEL={IO_LEVEL}

.model DLY_26 ugate (tplhTY=16ns tplhMX=24ns tphlTY=11ns tphlMX=17ns)

.ENDS  7426
*
*
* ----------------------------------------------------------- 7427 ------
*  Triple 3-Input Nor Gates
*
*  The TTL Logic Data Book, 1988, TI Pages 2-119 to 2-122
*  bss    2/7/94
*
.SUBCKT 7427  1A 1B 1C 1Y
+     optional: DPWR=$G_DPWR DGND=$G_DGND
+     params: MNTYMXDLY=0 IO_LEVEL=0

U1 nor(3) DPWR DGND
+     1A 1B 1C 1Y
+     DLY_27 IO_STD MNTYMXDLY={MNTYMXDLY} IO_LEVEL={IO_LEVEL}

.model DLY_27 ugate (tplhTY=10ns tplhMX=15ns tphlTY=7ns tphlMX=11ns)

.ENDS  7427
*
*
* ----------------------------------------------------------- 7428 ------
*  Quad 2-Input Nor Buffers
*
*  The TTL Logic Data Book, 1988, TI Pages 2-123 to 2-126
*  bss    2/7/94
*
.SUBCKT 7428  1A 1B 1Y
+     optional: DPWR=$G_DPWR DGND=$G_DGND
+     params: MNTYMXDLY=0 IO_LEVEL=0

U1 nor(2) DPWR DGND
+     1A 1B 1Y
+     DLY_28 IO_STD MNTYMXDLY={MNTYMXDLY} IO_LEVEL={IO_LEVEL}

.model DLY_28 ugate (tplhTY=6ns tplhMX=9ns tphlTY=8ns tphlMX=12ns)

.ENDS  7428
*
*
* ----------------------------------------------------------- 7430 ------
*  8-Input Nand Gates
*
*  The TTL Logic Data Book, 1988, TI Pages 2-127 to 2-131
*  bss    2/8/94
*
.SUBCKT 7430  A B C D E F G H Y
+     optional: DPWR=$G_DPWR DGND=$G_DGND
+     params: MNTYMXDLY=0 IO_LEVEL=0

U1 nand(8) DPWR DGND
+     A B C D E F G H Y
+     DLY_30 IO_STD MNTYMXDLY={MNTYMXDLY} IO_LEVEL={IO_LEVEL}

.model DLY_30 ugate (tplhTY=13ns tplhMX=22ns tphlTY=8ns tphlMX=15ns)

.ENDS  7430
*
*
* ----------------------------------------------------------- 7432 ------
*  Quad 2-Input Or Gates
*
*  The TTL Logic Data Book, 1988, TI Pages 2-137 to 2-141
*  bss    2/9/94
*
.SUBCKT 7432  1A 1B 1Y
+     optional: DPWR=$G_DPWR DGND=$G_DGND
+     params: MNTYMXDLY=0 IO_LEVEL=0

U1 or(2) DPWR DGND
+     1A 1B 1Y
+     DLY_32 IO_STD MNTYMXDLY={MNTYMXDLY} IO_LEVEL={IO_LEVEL}

.model DLY_32 ugate (tplhTY=10ns tplhMX=15ns tphlTY=14ns tphlMX=22ns)

.ENDS  7432
*
*
* ----------------------------------------------------------- 7433 ------
*  Quad 2-Input Nor Buffers With Open-Collector Outputs
*
*  The TTL Logic Data Book, 1988, TI Pages 2-143 to 2-146
*  bss    2/9/94
*
.SUBCKT 7433  1A 1B 1Y
+     optional: DPWR=$G_DPWR DGND=$G_DGND
+     params: MNTYMXDLY=0 IO_LEVEL=0

U1 nor(2) DPWR DGND
+     1A 1B 1Y
+     DLY_33 IO_STD_OC MNTYMXDLY={MNTYMXDLY} IO_LEVEL={IO_LEVEL}

.model DLY_33 ugate (tplhTY=10ns tplhMX=15ns tphlTY=12ns tphlMX=18ns)

.ENDS  7433
*
*
* ----------------------------------------------------------- 7437 ------
*  Quad 2-Input Nand Buffers
*
*  The TTL Logic Data Book, 1988, TI Pages 2-147 to 2-151
*  bss    2/9/94
*
.SUBCKT 7437  1A 1B 1Y
+     optional: DPWR=$G_DPWR DGND=$G_DGND
+     params: MNTYMXDLY=0 IO_LEVEL=0

U1 nand(2) DPWR DGND
+     1A 1B 1Y
+     DLY_37 IO_STD MNTYMXDLY={MNTYMXDLY} IO_LEVEL={IO_LEVEL}

.model DLY_37 ugate (tplhTY=13ns tplhMX=22ns tphlTY=8ns tphlMX=15ns)

.ENDS  7437
*
*
* ----------------------------------------------------------- 7438 ------
*  Quad 2-Input Nand Buffers With Open-Collector Outputs
*
*  The TTL Logic Data Book, 1988, TI Pages 2-153 to 2-157
*  bss    2/9/94
*
.SUBCKT 7438  1A 1B 1Y
+     optional: DPWR=$G_DPWR DGND=$G_DGND
+     params: MNTYMXDLY=0 IO_LEVEL=0

U1 nand(2) DPWR DGND
+     1A 1B 1Y
+     DLY_38 IO_STD_OC MNTYMXDLY={MNTYMXDLY} IO_LEVEL={IO_LEVEL}

.model DLY_38 ugate (tplhTY=14ns tplhMX=22ns tphlTY=11ns tphlMX=18ns)

.ENDS  7438
*
*
* ----------------------------------------------------------- 7439 ------
*  Quad 2-Input Nand Buffers With Open-Collector Outputs
*
*  The TTL Logic Data Book, 1988, TI Pages 2-159 to 2-160
*  bss    2/9/94
*
.SUBCKT 7439  1A 1B 1Y
+     optional: DPWR=$G_DPWR DGND=$G_DGND
+     params: MNTYMXDLY=0 IO_LEVEL=0

U1 nand(2) DPWR DGND
+     1A 1B 1Y
+     DLY_39 IO_STD_OC MNTYMXDLY={MNTYMXDLY} IO_LEVEL={IO_LEVEL}

.model DLY_39 ugate (tplhMX=22ns tphlMX=18ns)

.ENDS  7439
*
*
* ----------------------------------------------------------- 7440 ------
*  Dual 4-Input Nand Buffers
*
*  The TTL Logic Data Book, 1988, TI Pages 2-161 to 2-165
*  bss    2/9/94
*
.SUBCKT 7440  1A 1B 1C 1D 1Y
+     optional: DPWR=$G_DPWR DGND=$G_DGND
+     params: MNTYMXDLY=0 IO_LEVEL=0

U1 nand(4) DPWR DGND
+     1A 1B 1C 1D 1Y
+     DLY_40 IO_STD MNTYMXDLY={MNTYMXDLY} IO_LEVEL={IO_LEVEL}

.model DLY_40 ugate (tplhTY=13ns tplhMX=22ns tphlTY=8ns tphlMX=15ns)

.ENDS  7440
*
*
* ----------------------------------------------------------- 7442A ------
*  4-Line BCD to 10-Line Decimal Decoder
*
*  The TTL Logic Data Book, 1988, TI Pages 2-167 to 2-172
*  bss    2/10/94
*
.SUBCKT 7442A  A B C D
+      O0 O1 O2 O3 O4 O5 O6 O7 O8 O9
+      optional: DPWR=$G_DPWR DGND=$G_DGND
+      params: MNTYMXDLY=0 IO_LEVEL=0

U1 LOGICEXP (4,10) DPWR DGND
+      A B C D
+      O0_O O1_O O2_O O3_O O4_O O5_O O6_O O7_O O8_O O9_O
+      D0_GATE IO_STD IO_LEVEL={IO_LEVEL}
+
+  LOGIC:
+     abar = {~A}
+     bbar = {~B}
+     cbar = {~C}
+     dbar = {~D}
+
+     O0_O = {~(abar & bbar & cbar & dbar)}
+     O1_O = {~(A & bbar & cbar & dbar)}
+     O2_O = {~(abar & B & cbar & dbar)}
+     O3_O = {~(A & B & cbar & dbar)}
+     O4_O = {~(abar & bbar & C & dbar)}
+     O5_O = {~(A & bbar & C & dbar)}
+     O6_O = {~(abar & B & C & dbar)}
+     O7_O = {~(A & B & C & dbar)}
+     O8_O = {~(abar & bbar & cbar & D)}
+     O9_O = {~(A & bbar & cbar & D)}

U2 PINDLY (10,0,4) DPWR DGND
+      O0_O O1_O O2_O O3_O O4_O O5_O O6_O O7_O O8_O O9_O
+      A B C D
+      O0 O1 O2 O3 O4 O5 O6 O7 O8 O9
+      IO_STD MNTYMXDLY={MNTYMXDLY} IO_LEVEL={IO_LEVEL}
+
+  BOOLEAN:
+      ATRAN = {CHANGED(A,0)}
+      BTRAN = {CHANGED(B,0)}
+      CTRAN = {CHANGED(C,0)}
+      DTRAN = {CHANGED(D,0)}
+
+  PINDLY:
+      O0 = {
+        CASE(
+           TRN_LH, DELAY(-1,10ns,25ns),
+           TRN_HL, DELAY(-1,14ns,25ns),
+          DELAY(-1,14ns,25ns))}
+
+      O1 = {
+        CASE(
+           ATRAN, DELAY(-1,17ns,30ns),
+           TRN_LH, DELAY(-1,10ns,25ns),
+           TRN_HL, DELAY(-1,14ns,25ns),
+          DELAY(-1,17ns,30ns))}
+
+      O2 = {
+        CASE(
+           BTRAN, DELAY(-1,17ns,30ns),
+           TRN_LH, DELAY(-1,10ns,25ns),
+           TRN_HL, DELAY(-1,14ns,25ns),
+          DELAY(-1,17ns,30ns))}
+
+      O3 = {
+        CASE(
+           ATRAN | BTRAN, DELAY(-1,17ns,30ns),
+           TRN_LH, DELAY(-1,10ns,25ns),
+           TRN_HL, DELAY(-1,14ns,25ns),
+          DELAY(-1,17ns,30ns))}
+
+      O4 = {
+        CASE(
+           CTRAN, DELAY(-1,17ns,30ns),
+           TRN_LH, DELAY(-1,10ns,25ns),
+           TRN_HL, DELAY(-1,14ns,25ns),
+          DELAY(-1,17ns,30ns))}
+
+      O5 = {
+        CASE(
+           ATRAN | CTRAN, DELAY(-1,17ns,30ns),
+           TRN_LH, DELAY(-1,10ns,25ns),
+           TRN_HL, DELAY(-1,14ns,25ns),
+          DELAY(-1,17ns,30ns))}
+
+      O6 = {
+        CASE(
+           BTRAN | CTRAN, DELAY(-1,17ns,30ns),
+           TRN_LH, DELAY(-1,10ns,25ns),
+           TRN_HL, DELAY(-1,14ns,25ns),
+          DELAY(-1,17ns,30ns))}
+
+      O7 = {
+        CASE(
+           ATRAN | BTRAN | CTRAN, DELAY(-1,17ns,30ns),
+           TRN_LH, DELAY(-1,10ns,25ns),
+           TRN_HL, DELAY(-1,14ns,25ns),
+          DELAY(-1,17ns,30ns))}
+
+      O8 = {
+        CASE(
+           DTRAN, DELAY(-1,17ns,30ns),
+           TRN_LH, DELAY(-1,10ns,25ns),
+           TRN_HL, DELAY(-1,14ns,25ns),
+          DELAY(-1,17ns,30ns))}
+
+      O9 = {
+        CASE(
+           ATRAN | DTRAN, DELAY(-1,17ns,30ns),
+           TRN_LH, DELAY(-1,10ns,25ns),
+           TRN_HL, DELAY(-1,14ns,25ns),
+          DELAY(-1,17ns,30ns))}

.ENDS 7442A
*
*
* ----------------------------------------------------------- 7443A ------
*  4-Line BCD to 10-Line Decimal Decoder
*
*  The TTL Data Book, Vol. 2, 1985, TI Pages 3-181 to 3-189
*  bss    2/10/94
*
.SUBCKT 7443A  A B C D
+      O0 O1 O2 O3 O4 O5 O6 O7 O8 O9
+      optional: DPWR=$G_DPWR DGND=$G_DGND
+      params: MNTYMXDLY=0 IO_LEVEL=0

U1 LOGICEXP (4,10) DPWR DGND
+      A B C D
+      O0_O O1_O O2_O O3_O O4_O O5_O O6_O O7_O O8_O O9_O
+      D0_GATE IO_STD IO_LEVEL={IO_LEVEL}
+
+  LOGIC:
+     abar = {~A}
+     bbar = {~B}
+     cbar = {~C}
+     dbar = {~D}
+
+     O0_O = {~(A & B & cbar & dbar)}
+     O1_O = {~(abar & bbar & C & dbar)}
+     O2_O = {~(A & bbar & C & dbar)}
+     O3_O = {~(abar & B & C & dbar)}
+     O4_O = {~(A & B & C & dbar)}
+     O5_O = {~(abar & bbar & cbar & D)}
+     O6_O = {~(A & bbar & cbar & D)}
+     O7_O = {~(abar & B & cbar & D)}
+     O8_O = {~(A & B & cbar & D)}
+     O9_O = {~(abar & bbar & C & D)}

U2 PINDLY (10,0,4) DPWR DGND
+      O0_O O1_O O2_O O3_O O4_O O5_O O6_O O7_O O8_O O9_O
+      A B C D
+      O0 O1 O2 O3 O4 O5 O6 O7 O8 O9
+      IO_STD MNTYMXDLY={MNTYMXDLY} IO_LEVEL={IO_LEVEL}
+
+  BOOLEAN:
+      ATRAN = {CHANGED(A,0)}
+      BTRAN = {CHANGED(B,0)}
+      CTRAN = {CHANGED(C,0)}
+      DTRAN = {CHANGED(D,0)}
+
+  PINDLY:
+      O0 = {
+        CASE(
+           TRN_LH, DELAY(-1,10ns,25ns),
+           TRN_HL, DELAY(-1,14ns,25ns),
+          DELAY(-1,14ns,25ns))}
+
+      O1 = {
+        CASE(
+           ATRAN, DELAY(-1,17ns,30ns),
+           TRN_LH, DELAY(-1,10ns,25ns),
+           TRN_HL, DELAY(-1,14ns,25ns),
+          DELAY(-1,17ns,30ns))}
+
+      O2 = {
+        CASE(
+           BTRAN, DELAY(-1,17ns,30ns),
+           TRN_LH, DELAY(-1,10ns,25ns),
+           TRN_HL, DELAY(-1,14ns,25ns),
+          DELAY(-1,17ns,30ns))}
+
+      O3 = {
+        CASE(
+           ATRAN | BTRAN, DELAY(-1,17ns,30ns),
+           TRN_LH, DELAY(-1,10ns,25ns),
+           TRN_HL, DELAY(-1,14ns,25ns),
+          DELAY(-1,17ns,30ns))}
+
+      O4 = {
+        CASE(
+           CTRAN, DELAY(-1,17ns,30ns),
+           TRN_LH, DELAY(-1,10ns,25ns),
+           TRN_HL, DELAY(-1,14ns,25ns),
+          DELAY(-1,17ns,30ns))}
+
+      O5 = {
+        CASE(
+           ATRAN | CTRAN, DELAY(-1,17ns,30ns),
+           TRN_LH, DELAY(-1,10ns,25ns),
+           TRN_HL, DELAY(-1,14ns,25ns),
+          DELAY(-1,17ns,30ns))}
+
+      O6 = {
+        CASE(
+           BTRAN | CTRAN, DELAY(-1,17ns,30ns),
+           TRN_LH, DELAY(-1,10ns,25ns),
+           TRN_HL, DELAY(-1,14ns,25ns),
+          DELAY(-1,17ns,30ns))}
+
+      O7 = {
+        CASE(
+           ATRAN | BTRAN | CTRAN, DELAY(-1,17ns,30ns),
+           TRN_LH, DELAY(-1,10ns,25ns),
+           TRN_HL, DELAY(-1,14ns,25ns),
+          DELAY(-1,17ns,30ns))}
+
+      O8 = {
+        CASE(
+           DTRAN, DELAY(-1,17ns,30ns),
+           TRN_LH, DELAY(-1,10ns,25ns),
+           TRN_HL, DELAY(-1,14ns,25ns),
+          DELAY(-1,17ns,30ns))}
+
+      O9 = {
+        CASE(
+           ATRAN | DTRAN, DELAY(-1,17ns,30ns),
+           TRN_LH, DELAY(-1,10ns,25ns),
+           TRN_HL, DELAY(-1,14ns,25ns),
+          DELAY(-1,17ns,30ns))}

.ENDS 7443A
*
*
* ----------------------------------------------------------- 7444A ------
*  4-Line BCD to 10-Line Decimal Decoder
*
*  The TTL Data Book, Vol. 2, 1985, TI Pages 3-181 to 3-189
*  bss    2/10/94
*
.SUBCKT 7444A  A B C D
+      O0 O1 O2 O3 O4 O5 O6 O7 O8 O9
+      optional: DPWR=$G_DPWR DGND=$G_DGND
+      params: MNTYMXDLY=0 IO_LEVEL=0

U1 LOGICEXP (4,10) DPWR DGND
+      A B C D
+      O0_O O1_O O2_O O3_O O4_O O5_O O6_O O7_O O8_O O9_O
+      D0_GATE IO_STD IO_LEVEL={IO_LEVEL}
+
+  LOGIC:
+     abar = {~A}
+     bbar = {~B}
+     cbar = {~C}
+     dbar = {~D}
+
+     O0_O = {~(abar & B & cbar & dbar)}
+     O1_O = {~(abar & B & C & dbar)}
+     O2_O = {~(A & B & C & dbar)}
+     O3_O = {~(A & bbar & C & dbar)}
+     O4_O = {~(abar & bbar & C & dbar)}
+     O5_O = {~(abar & bbar & C & D)}
+     O6_O = {~(A & bbar & C & D)}
+     O7_O = {~(A & B & C & D)}
+     O8_O = {~(abar & B & C & D)}
+     O9_O = {~(abar & B & cbar & D)}

U2 PINDLY (10,0,4) DPWR DGND
+      O0_O O1_O O2_O O3_O O4_O O5_O O6_O O7_O O8_O O9_O
+      A B C D
+      O0 O1 O2 O3 O4 O5 O6 O7 O8 O9
+      IO_STD MNTYMXDLY={MNTYMXDLY} IO_LEVEL={IO_LEVEL}
+
+  BOOLEAN:
+      ATRAN = {CHANGED(A,0)}
+      BTRAN = {CHANGED(B,0)}
+      CTRAN = {CHANGED(C,0)}
+      DTRAN = {CHANGED(D,0)}
+
+  PINDLY:
+      O0 = {
+        CASE(
+           TRN_LH, DELAY(-1,10ns,25ns),
+           TRN_HL, DELAY(-1,14ns,25ns),
+          DELAY(-1,14ns,25ns))}
+
+      O1 = {
+        CASE(
+           ATRAN, DELAY(-1,17ns,30ns),
+           TRN_LH, DELAY(-1,10ns,25ns),
+           TRN_HL, DELAY(-1,14ns,25ns),
+          DELAY(-1,17ns,30ns))}
+
+      O2 = {
+        CASE(
+           BTRAN, DELAY(-1,17ns,30ns),
+           TRN_LH, DELAY(-1,10ns,25ns),
+           TRN_HL, DELAY(-1,14ns,25ns),
+          DELAY(-1,17ns,30ns))}
+
+      O3 = {
+        CASE(
+           ATRAN | BTRAN, DELAY(-1,17ns,30ns),
+           TRN_LH, DELAY(-1,10ns,25ns),
+           TRN_HL, DELAY(-1,14ns,25ns),
+          DELAY(-1,17ns,30ns))}
+
+      O4 = {
+        CASE(
+           CTRAN, DELAY(-1,17ns,30ns),
+           TRN_LH, DELAY(-1,10ns,25ns),
+           TRN_HL, DELAY(-1,14ns,25ns),
+          DELAY(-1,17ns,30ns))}
+
+      O5 = {
+        CASE(
+           ATRAN | CTRAN, DELAY(-1,17ns,30ns),
+           TRN_LH, DELAY(-1,10ns,25ns),
+           TRN_HL, DELAY(-1,14ns,25ns),
+          DELAY(-1,17ns,30ns))}
+
+      O6 = {
+        CASE(
+           BTRAN | CTRAN, DELAY(-1,17ns,30ns),
+           TRN_LH, DELAY(-1,10ns,25ns),
+           TRN_HL, DELAY(-1,14ns,25ns),
+          DELAY(-1,17ns,30ns))}
+
+      O7 = {
+        CASE(
+           ATRAN | BTRAN | CTRAN, DELAY(-1,17ns,30ns),
+           TRN_LH, DELAY(-1,10ns,25ns),
+           TRN_HL, DELAY(-1,14ns,25ns),
+          DELAY(-1,17ns,30ns))}
+
+      O8 = {
+        CASE(
+           DTRAN, DELAY(-1,17ns,30ns),
+           TRN_LH, DELAY(-1,10ns,25ns),
+           TRN_HL, DELAY(-1,14ns,25ns),
+          DELAY(-1,17ns,30ns))}
+
+      O9 = {
+        CASE(
+           ATRAN | DTRAN, DELAY(-1,17ns,30ns),
+           TRN_LH, DELAY(-1,10ns,25ns),
+           TRN_HL, DELAY(-1,14ns,25ns),
+          DELAY(-1,17ns,30ns))}

.ENDS 7444A
*
*
* ----------------------------------------------------------- 7445 ------
*  BCD to Decimal Decoder/Driver
*
*  The TTL Logic Data Book, 1988, TI Pages 2-173 to 2-174
*  bss    2/10/94
*
.SUBCKT 7445  A B C D
+      O0 O1 O2 O3 O4 O5 O6 O7 O8 O9
+      optional: DPWR=$G_DPWR DGND=$G_DGND
+      params: MNTYMXDLY=0 IO_LEVEL=0

U1 LOGICEXP (4,10) DPWR DGND
+      A B C D
+      O0_O O1_O O2_O O3_O O4_O O5_O O6_O O7_O O8_O O9_O
+      D0_GATE IO_STD IO_LEVEL={IO_LEVEL}
+
+  LOGIC:
+     abar = {~A}
+     bbar = {~B}
+     cbar = {~C}
+     dbar = {~D}
+
+     O0_O = {~(abar & bbar & cbar & dbar)}
+     O1_O = {~(A & bbar & cbar & dbar)}
+     O2_O = {~(abar & B & cbar & dbar)}
+     O3_O = {~(A & B & cbar & dbar)}
+     O4_O = {~(abar & bbar & C & dbar)}
+     O5_O = {~(A & bbar & C & dbar)}
+     O6_O = {~(abar & B & C & dbar)}
+     O7_O = {~(A & B & C & dbar)}
+     O8_O = {~(abar & bbar & cbar & D)}
+     O9_O = {~(A & bbar & cbar & D)}

U2 PINDLY (10,0,4) DPWR DGND
+      O0_O O1_O O2_O O3_O O4_O O5_O O6_O O7_O O8_O O9_O
+      A B C D
+      O0 O1 O2 O3 O4 O5 O6 O7 O8 O9
+      IO_STD_OC MNTYMXDLY={MNTYMXDLY} IO_LEVEL={IO_LEVEL}
+
+  PINDLY:
+      O0 O1 O2 O3 O4 O5 O6 O7 O8 O9 = {
+           DELAY(-1,-1,50ns)}

.ENDS 7445
*
*
* ----------------------------------------------------------- 7446A ------
*  BCD To Seven Segment Decoder/Driver
*
*  The TTL Logic Data Book, 1988, TI Pages 2-175 to 2-187
*  bss    2/11/94
*
.SUBCKT 7446A  A B C D BI/RBO RBIBAR LTBAR
+      OA OB OC OD OE OF OG
+      optional: DPWR=$G_DPWR DGND=$G_DGND
+      params: MNTYMXDLY=0 IO_LEVEL=0

U1 LOGICEXP (7,8) DPWR DGND
+      A B C D BI/RBO RBIBAR LTBAR
+      O_A O_B O_C O_D O_E O_F O_G BI/RBO
+      D0_GATE IO_STD IO_LEVEL={IO_LEVEL}
+
+    LOGIC:
+      alt = {~(A & LTBAR)}
+      blt = {~(B & LTBAR)}
+      clt = {~(C & LTBAR)}
+      dbar = {~D}
+      abi = {~(alt & BI/RBO)}
+      bbi = {~(blt & BI/RBO)}
+      cbi = {~(clt & BI/RBO)}
+      dbi = {~(dbar & BI/RBO)}
+      rbi = {~RBIBAR}
+
+      O_A = {(bbi & dbi) | (alt & cbi) | (abi & blt & clt & dbar)}
+      O_B = {(bbi & dbi) | (abi & blt & cbi) | (alt & bbi & cbi)}
+      O_C = {(cbi & dbi) | (alt & bbi & clt)}
+      O_D = {(abi & blt & clt) | (alt & blt & cbi) | (abi & bbi & cbi)}
+      O_E = {abi | (blt & cbi)}
+      O_F  = {(abi & bbi) | (bbi & clt) | (abi & clt & dbar)}
+      O_G = {(abi & bbi & cbi) | (blt & clt & dbar & LTBAR)}
+      BI/RBO = {~(LTBAR & rbi & dbar & clt & blt & alt)}

U2 PINDLY (7,0,0) DPWR DGND
+    O_A O_B O_C O_D O_E O_F O_G
+    OA OB OC OD OE OF OG
+    IO_STD_OC MNTYMXDLY={MNTYMXDLY} IO_LEVEL={IO_LEVEL}
+
+  PINDLY:
+     OA OB OC OD OE OF OG = {
+         DELAY(-1,-1,100ns)}

.ENDS 7446A
*
*
* ----------------------------------------------------------- 7447A ------
*  BCD To Seven Segment Decoder/Driver
*
*  The TTL Logic Data Book, 1988, TI Pages 2-175 to 2-187
*  bss    2/14/94
*
.SUBCKT 7447A  A B C D BI/RBO RBIBAR LTBAR
+      OA OB OC OD OE OF OG
+      optional: DPWR=$G_DPWR DGND=$G_DGND
+      params: MNTYMXDLY=0 IO_LEVEL=0

U1 LOGICEXP (7,8) DPWR DGND
+      A B C D BI/RBO RBIBAR LTBAR
+      O_A O_B O_C O_D O_E O_F O_G BI/RBO
+      D0_GATE IO_STD IO_LEVEL={IO_LEVEL}
+
+    LOGIC:
+      alt = {~(A & LTBAR)}
+      blt = {~(B & LTBAR)}
+      clt = {~(C & LTBAR)}
+      dbar = {~D}
+      abi = {~(alt & BI/RBO)}
+      bbi = {~(blt & BI/RBO)}
+      cbi = {~(clt & BI/RBO)}
+      dbi = {~(dbar & BI/RBO)}
+      rbi = {~RBIBAR}
+
+      O_A = {(bbi & dbi) | (alt & cbi) | (abi & blt & clt & dbar)}
+      O_B = {(bbi & dbi) | (abi & blt & cbi) | (alt & bbi & cbi)}
+      O_C = {(cbi & dbi) | (alt & bbi & clt)}
+      O_D = {(abi & blt & clt) | (alt & blt & cbi) | (abi & bbi & cbi)}
+      O_E = {abi | (blt & cbi)}
+      O_F  = {(abi & bbi) | (bbi & clt) | (abi & clt & dbar)}
+      O_G = {(abi & bbi & cbi) | (blt & clt & dbar & LTBAR)}
+      BI/RBO = {~(LTBAR & rbi & dbar & clt & blt & alt)}

U2 PINDLY (7,0,0) DPWR DGND
+    O_A O_B O_C O_D O_E O_F O_G
+    OA OB OC OD OE OF OG
+    IO_STD_OC MNTYMXDLY={MNTYMXDLY} IO_LEVEL={IO_LEVEL}
+
+  PINDLY:
+     OA OB OC OD OE OF OG = {
+         DELAY(-1,-1,100ns)}

.ENDS 7447A
*
*
* ----------------------------------------------------------- 7448 ------
*  BCD To Seven Segment Decoder/Driver
*
*  The TTL Logic Data Book, 1988, TI Pages 2-175 to 2-187
*  bss    2/14/94
*
.SUBCKT 7448  A B C D BI/RBO RBIBAR LTBAR
+      OA OB OC OD OE OF OG
+      optional: DPWR=$G_DPWR DGND=$G_DGND
+      params: MNTYMXDLY=0 IO_LEVEL=0

U1 LOGICEXP (7,8) DPWR DGND
+      A B C D BI/RBO RBIBAR LTBAR
+      O_A O_B O_C O_D O_E O_F O_G BI/RBO
+      D0_GATE IO_STD IO_LEVEL={IO_LEVEL}
+
+    LOGIC:
+      alt = {~(A & LTBAR)}
+      blt = {~(B & LTBAR)}
+      clt = {~(C & LTBAR)}
+      dbar = {~D}
+      abi = {~(alt & BI/RBO)}
+      bbi = {~(blt & BI/RBO)}
+      cbi = {~(clt & BI/RBO)}
+      dbi = {~(dbar & BI/RBO)}
+      rbi = {~RBIBAR}
+
+      O_A = {~((bbi & dbi) | (alt & cbi) | (abi & blt & clt & dbar))}
+      O_B = {~((bbi & dbi) | (abi & blt & cbi) | (alt & bbi & cbi))}
+      O_C = {~((cbi & dbi) | (alt & bbi & clt))}
+      O_D = {~((abi & blt & clt) | (alt & blt & cbi) | (abi & bbi & cbi))}
+      O_E = {~(abi | (blt & cbi))}
+      O_F  = {~((abi & bbi) | (bbi & clt) | (abi & clt & dbar))}
+      O_G = {~((abi & bbi & cbi) | (blt & clt & dbar & LTBAR))}
+      BI/RBO = {~(LTBAR & rbi & dbar & clt & blt & alt)}

U2 PINDLY (7,0,0) DPWR DGND