***** The following digital default timing models are used in the digital
***** libraries.  All of these models have zero delays and zero constraints.

* STANDARD GATES
.model D0_GATE ugate ()

* TRI-STATE GATES
.model D0_TGATE utgate ()

* EDGE TRIGGERED FLIP-FLOPS
.model D0_EFF ueff ()

* GATED LATCHES
.model D0_GFF ugff ()

* PROGRAMMABLE LOGIC DEVICES
.model D0_PLD upld ()


***** SAMPLE DIGITAL DEVICE DELAYS*****

* STANDARD GATE
.model DLY_TTL ugate (tplhty=11ns tplhmx=22ns tphlty=8ns tphlmx=15ns)

* TRI-STATE GATE
.model DLY_TRI utgate (tplhty=12ns tplhmx=18ns tphlty=12ns tphlmx=18ns
+     tpzlty=20ns tpzlmx=30ns tpzhty=15ns tpzhmx=23ns
+     tplzty=10ns tplzmx=20ns tphzty=15ns tphzmx=25ns)

* EDGE TRIGGERED FLIP-FLOP
.model DLY_EFF ueff (tppcqlhty=16ns tppcqlhmx=25ns tppcqhlty=25ns
+     tppcqhlmx=40ns twpclmn=25ns tpclkqlhty=16ns tpclkqlhmx=25ns
+     tpclkqhlty=25ns tpclkqhlmx=40ns twclklmn=25ns twclkhmn=25ns
+     tsudclkmn=15ns tsupcclkhmn=10ns thdclkmn=5ns)

* GATED LATCH
.model DLY_GFF ugff (tppcqlhty=16ns tppcqlhmx=25ns tppcqhlty=25ns
+     tppcqhlmx=40ns twpclmn=25ns tpgqlhty=16ns tpgqlhmx=25ns
+     tpgqhlty=25ns tpgqhlmx=40ns twghmn=30ns tsudgmn=15ns
+     tsupcghmn=10ns thdgmn=5ns)


*****74/TTL POWER SUPPLY SUBCIRCUIT*****

.subckt DIGIFPWR AGND
+  optional: DPWR=$G_DPWR DGND=$G_DGND
+  params: VOLTAGE=5 REFERENCE=0
V1 DPWR AGND {VOLTAGE}
R1 DPWR AGND 1E9
V2 DGND AGND {REFERENCE}
R2 DGND AGND 1E9
R3 AGND 0 1m
.ends


*****CD4000 POWER SUPPLY SUBCIRCUIT*****
.param CD4000_VDD=5V
.param CD4000_VSS=0V

.subckt CD4000_PWR AGND
+  optional: VDD=$G_CD4000_VDD VSS=$G_CD4000_VSS
+  params: VOLTAGE={CD4000_VDD} REFERENCE={CD4000_VSS}
V1 VDD AGND {VOLTAGE}
R1 VDD AGND 1E9
V2 VSS AGND {REFERENCE}
R2 VSS AGND 1E9
R3 AGND 0 1m
.ends


*****ECL 10K POWER SUPPLY SUBCIRCUIT*****

.subckt ECL_10K_PWR AGND
+  optional: VCC1=$G_ECL_10K_VCC1 VCC2=$G_ECL_10K_VCC2
+            VEE=$G_ECL_10K_VEE VTT=$G_ECL_10K_VTT
+  params: VOLT1=0 VOLT2=0 REF=-5.2 REFTT=-2
V1 VCC1 AGND {VOLT1}
R1 VCC1 AGND 1E9
V2 VCC2 AGND {VOLT2}
R2 VCC2 AGND 1E9
V3 VEE AGND {REF}
R3 VEE AGND 1E9
V4 VTT AGND {REFTT}
R4 VTT AGND 1E9
R5 AGND 0 1m
.ends


*****ECL 100K POWER SUPPLY SUBCIRCUIT*****

.subckt ECL_100K_PWR AGND
+  optional: VCC1=$G_ECL_100K_VCC1 VCC2=$G_ECL_100K_VCC2
+            VEE=$G_ECL_100K_VEE VTT=$G_ECL_100K_VTT
+  params: VOLT1=0 VOLT2=0 REF=-4.5 REFTT=-2
V1 VCC1 AGND {VOLT1}
R1 VCC1 AGND 1E9
V2 VCC2 AGND {VOLT2}
R2 VCC2 AGND 1E9
V3 VEE AGND {REF}
R3 VEE AGND 1E9
V4 VTT AGND {REFTT}
R4 VTT AGND 1E9
R5 AGND 0 1m
.ends


***** DEFAULT I/O MODELS*****

.model IO_DFT uio (
+  DRVH=50 DRVL=50
+  ATOD1="ATODDEFAULT" ATOD2="ATODDEFAULT_NX"
+  ATOD3="ATODDEFAULT" ATOD4="ATODDEFAULT_NX"
+  DTOA1="DTOADEFAULT" DTOA2="DTOADEFAULT"
+  DTOA3="DTOADEFAULT" DTOA4="DTOADEFAULT"
+  DIGPOWER="DIGIFPWR")

.model IO_DFT_OC uio (
+  DRVH=1MEG DRVL=50
+  ATOD1="ATODDEFAULT" ATOD2="ATODDEFAULT_NX"
+  ATOD3="ATODDEFAULT" ATOD4="ATODDEFAULT_NX"
+  DTOA1="DTOADEFAULT_OC" DTOA2="DTOADEFAULT_OC"
+  DTOA3="DTOADEFAULT_OC" DTOA4="DTOADEFAULT_OC"
+  DIGPOWER="DIGIFPWR")

* DEFAULT ATOD SUBCIRCUIT INTERFACES
.subckt ATODDEFAULT A D DPWR DGND
+  params: CAPACITANCE=0
O1 A DGND DODFT DGTLNET=D IO_DFT
C1 A DGND {CAPACITANCE+.1P}
.ends

.subckt ATODDEFAULT_NX A D DPWR DGND
+  params: CAPACITANCE=0
O1 A DGND DODFT_NX DGTLNET=D IO_DFT
C1 A DGND {CAPACITANCE+.1P}
.ends

* DEFAULT DTOA SUBCIRCUIT INTERFACES
.subckt DTOADEFAULT D A DPWR DGND
+  params: CAPACITANCE=0 DRVH=0 DRVL=0
N1 A DGND DPWR DINDFT DGTLNET=D IO_DFT
CLOAD A DGND {CAPACITANCE+.1p}
.ends

.subckt DTOADEFAULT_OC D A DPWR DGND
+  params: CAPACITANCE=0 DRVH=0 DRVL=0
N1 A DGND DPWR DINDFT_OC DGTLNET=D IO_DFT_OC
CLOAD A DGND {CAPACITANCE+.1p}
.ends

* DEFAULT DIGITAL INPUT and OUTPUT MODELS
.model DODFT doutput (
+  s0name="X"  s0vlo=.8    s0vhi=2
+  s1name="1"  s1vlo=2     s1vhi=7
+  s2name="F"  s2vlo=1.35  s2vhi=2
+  s3name="F"  s3vlo=.8    s3vhi=1.45
+  s4name="X"  s4vlo=.8    s4vhi=2
+  s5name="0"  s5vlo=-1.5  s5vhi=.8
+  s6name="R"  s6vlo=.8    s6vhi=1.45
+  s7name="R"  s7vlo=1.35  s7vhi=2)

.model DODFT_NX doutput (
+  s0name="0"  s0vlo=-1.5  s0vhi=1.4
+  s1name="1"  s1vlo=1.4   s1vhi=7)

.model DINDFT dinput (
+  s0name="0"  s0tsw=3ns  s0rlo=7.1   s0rhi=170   ;@6.8 ohms, .2V
+  s1name="1"  s1tsw=3ns  s1rlo=415   s1rhi=195   ;@133 ohms, 3.4V
+  s2name="F"  s2tsw=3ns  s2rlo=41.8  s2rhi=107   ;@30.1 ohms, 1.4V
+  s3name="R"  s3tsw=3ns  s3rlo=41.8  s3rhi=107   ;@30.1 ohms, 1.4V
+  s4name="X"  s4tsw=3ns  s4rlo=41.8  s4rhi=107   ;@30.1 ohms, 1.4V
+  s5name="Z"  s5tsw=3ns  s5rlo=1Meg  s5rhi=1Meg)

.model DINDFT_OC dinput (
+  s0name="0"  s0tsw=3ns  s0rlo=7.1   s0rhi=170   ;@6.8 ohms, .2V
+  s1name="1"  s1tsw=3ns  s1rlo=1Meg  s1rhi=1Meg
+  s2name="F"  s2tsw=3ns  s2rlo=41.8  s2rhi=107   ;@30.1 ohms, 1.4V
+  s3name="R"  s3tsw=3ns  s3rlo=41.8  s3rhi=107   ;@30.1 ohms, 1.4V
+  s4name="X"  s4tsw=3ns  s4rlo=41.8  s4rhi=107   ;@30.1 ohms, 1.4V
+  s5name="Z"  s5tsw=3ns  s5rlo=1Meg  s5rhi=1Meg)


***** STIMULUS I/O MODELS*****
* This model was created to allow the stimulus an I/O model
* that would have a greater strength than the other I/O models.
* Since there is no input, the AtoD section has been omitted.

.model IO_STM uio (
+  DRVH=0 DRVL=0
+  DTOA1="DTOA_STM" DTOA2="DTOA_STM"
+  DTOA3="DTOA_STM" DTOA4="DTOA_STM"
+  DIGPOWER="DIGIFPWR")

.model IO_STM_OC uio (
+  DRVH=1MEG DRVL=0
+  DTOA1="DTOA_STM_OC" DTOA2="DTOA_STM_OC"
+  DTOA3="DTOA_STM_OC" DTOA4="DTOA_STM_OC"
+  DIGPOWER="DIGIFPWR")

* STIMULUS DTOA SUBCIRCUIT INTERFACES
.subckt DTOA_STM D A DPWR DGND
+  params: CAPACITANCE=0 DRVH=0 DRVL=0
N1 A DGND DPWR DINSTM DGTLNET=D IO_STM
CLOAD A DGND {CAPACITANCE+.1p}
.ends

.subckt DTOA_STM_OC D A DPWR DGND
+  params: CAPACITANCE=0 DRVH=0 DRVL=0
N1 A DGND DPWR DINSTM_OC DGTLNET=D IO_STM_OC
CLOAD A DGND {CAPACITANCE+.1p}
.ends

* STIMULUS DIGITAL INPUT MODELS
.model DINSTM dinput (
+  s0name="0"  s0tsw=500ps  s0rlo=.1    s0rhi=1K
+  s1name="1"  s1tsw=500ps  s1rlo=1K    s1rhi=.1
+  s2name="F"  s2tsw=500ps  s2rlo=.139  s2rhi=.357   ;@.1 ohms, 1.4V
+  s3name="R"  s3tsw=500ps  s3rlo=.139  s3rhi=.357   ;@.1 ohms, 1.4V
+  s4name="X"  s4tsw=500ps  s4rlo=.139  s4rhi=.357   ;@.1 ohms, 1.4V
+  s5name="Z"  s5tsw=500ps  s5rlo=1Meg  s5rhi=1Meg)

.model DINSTM_OC dinput (
+  s0name="0"  s0tsw=500ps  s0rlo=.1    s0rhi=1K
+  s1name="1"  s1tsw=500ps  s1rlo=1Meg  s1rhi=1Meg
+  s2name="F"  s2tsw=500ps  s2rlo=.139  s2rhi=.357   ;@.1 ohms, 1.4V
+  s3name="R"  s3tsw=500ps  s3rlo=.139  s3rhi=.357   ;@.1 ohms, 1.4V
+  s4name="X"  s4tsw=500ps  s4rlo=.139  s4rhi=.357   ;@.1 ohms, 1.4V
+  s5name="Z"  s5tsw=500ps  s5rlo=1Meg  s5rhi=1Meg)


***** STANDARD 74TTL I/O MODELS*****

* These parts were derived from the TI TTL Logic Data Book, 1988
* Pages 1-51, 2-4 to 5, 2-11, 2-69
* The open collector tsw parameters were measured with
* a 4k ohm pullup resistor.

.model IO_STD uio (
+  DRVH=130 DRVL=130
+  ATOD1="ATOD_STD" ATOD2="ATOD_STD_NX"
+  ATOD3="ATOD_STD" ATOD4="ATOD_STD_NX"
+  DTOA1="DTOA_STD" DTOA2="DTOA_STD"
+  DTOA3="DTOA_STD" DTOA4="DTOA_STD"
+  TSWHL1=3.310ns TSWHL2=3.310ns
+  TSWHL3=3.310ns TSWHL4=3.310ns
+  TSWLH1=2.115ns TSWLH2=2.115ns
+  TSWLH3=2.115ns TSWLH4=2.115ns
+  DIGPOWER="DIGIFPWR")

.model IO_STD_OC uio (
+  DRVH=1MEG DRVL=130
+  ATOD1="ATOD_STD" ATOD2="ATOD_STD_NX"
+  ATOD3="ATOD_STD" ATOD4="ATOD_STD_NX"
+  DTOA1="DTOA_STD_OC" DTOA2="DTOA_STD_OC"
+  DTOA3="DTOA_STD_OC" DTOA4="DTOA_STD_OC"
+  TSWHL1=3.516ns TSWHL2=3.516ns
+  TSWHL3=3.516ns TSWHL4=3.516ns
+  TSWLH1=1.898ns TSWLH2=1.898ns
+  TSWLH3=1.898ns TSWLH4=1.898ns
+  DIGPOWER="DIGIFPWR")

.model IO_STD_OC_ST uio (
+  DRVH=1MEG DRVL=130
+  ATOD1="ATOD_STD_ST" ATOD2="ATOD_STD_ST"
+  ATOD3="ATOD_STD_ST" ATOD4="ATOD_STD_ST"
+  DTOA1="DTOA_STD_OC" DTOA2="DTOA_STD_OC"
+  DTOA3="DTOA_STD_OC" DTOA4="DTOA_STD_OC"
+  TSWHL1=3.516ns TSWHL2=3.516ns
+  TSWHL3=3.516ns TSWHL4=3.516ns
+  TSWLH1=1.898ns TSWLH2=1.898ns
+  TSWLH3=1.898ns TSWLH4=1.898ns
+  DIGPOWER="DIGIFPWR")

.model IO_STD_ST uio (
+  DRVH=130 DRVL=130
+  ATOD1="ATOD_STD_ST" ATOD2="ATOD_STD_ST"
+  ATOD3="ATOD_STD_ST" ATOD4="ATOD_STD_ST"
+  DTOA1="DTOA_STD" DTOA2="DTOA_STD"
+  DTOA3="DTOA_STD" DTOA4="DTOA_STD"
+  TSWHL1=3.310ns TSWHL2=3.310ns
+  TSWHL3=3.310ns TSWHL4=3.310ns
+  TSWLH1=2.115ns TSWLH2=2.115ns
+  TSWLH3=2.115ns TSWLH4=2.115ns
+  DIGPOWER="DIGIFPWR")


* STANDARD TTL ATOD SUBCIRCUIT INTERFACES
.subckt ATOD_STD A D DPWR DGND
+  params: CAPACITANCE=0
O1 A DGND DO74 DGTLNET=D IO_STD
C1 A DGND {CAPACITANCE+.1P}
R1 DPWR 1 4K
Q1 2 1 A Q74
D1 DGND A D74CLMP
D2 2 3 D74
D3 3 DGND D74
.ends

.subckt ATOD_STD_NX A D DPWR DGND
+  params: CAPACITANCE=0
O1 A DGND DO74_NX DGTLNET=D IO_STD
C1 A DGND {CAPACITANCE+.1P}
R1 DPWR 1 4K
Q1 2 1 A Q74
D1 DGND A D74CLMP
D2 2 3 D74
D3 3 DGND D74
.ends

.subckt ATOD_STD_ST A D DPWR DGND
+  params: CAPACITANCE=0
O1 A DGND DO74_ST DGTLNET=D IO_STD_ST
C1 A DGND {CAPACITANCE+.1P}
R1 DPWR 1 4K
Q1 2 1 A Q74
D1 DGND A D74CLMP
D2 2 3 D74
D3 3 DGND D74
.ends

* STANDARD TTL DTOA SUBCIRCUIT INTERFACES
.subckt DTOA_STD D A DPWR DGND
+  params: CAPACITANCE=0 DRVH=0 DRVL=0
N1 A DGND DPWR DIN74 DGTLNET=D IO_STD
CLOAD A DGND {CAPACITANCE+.1p}
.ends

.subckt DTOA_STD_OC D A DPWR DGND
+  params: CAPACITANCE=0 DRVH=0 DRVL=0
N1 A DGND DPWR DIN74_OC DGTLNET=D IO_STD_OC
CLOAD A DGND {CAPACITANCE+.1p}
.ends

* STANDARD TTL DIGITAL INPUT and OUTPUT MODELS
.model DO74 doutput (
+  s0name="X"  s0vlo=.8    s0vhi=2
+  s1name="1"  s1vlo=2     s1vhi=5.5
+  s2name="F"  s2vlo=1.35  s2vhi=2
+  s3name="F"  s3vlo=.8    s3vhi=1.45
+  s4name="X"  s4vlo=.8    s4vhi=2
+  s5name="0"  s5vlo=-1.5  s5vhi=.8
+  s6name="R"  s6vlo=.8    s6vhi=1.45
+  s7name="R"  s7vlo=1.35  s7vhi=2)

.model DO74_NX doutput (
+  s0name="0"  s0vlo=-1.5  s0vhi=1.4
+  s1name="1"  s1vlo=1.4   s1vhi=5.5)

.model DO74_ST doutput (
+  s0name="0"  s0vlo=-1.5  s0vhi=1.7
+  s1name="1"  s1vlo=.9    s1vhi=5.5)

.model DIN74 dinput (
+  s0name="0"  s0tsw=3.5ns  s0rlo=7.1   s0rhi=170   ;@6.8 ohms, .2V
+  s1name="1"  s1tsw=7.5ns  s1rlo=415   s1rhi=195   ;@133 ohms, 3.4V
+  s2name="F"  s2tsw=3.5ns  s2rlo=41.8  s2rhi=107   ;@30.1 ohms, 1.4V
+  s3name="R"  s3tsw=3.5ns  s3rlo=41.8  s3rhi=107   ;@30.1 ohms, 1.4V
+  s4name="X"  s4tsw=3.5ns  s4rlo=41.8  s4rhi=107   ;@30.1 ohms, 1.4V
+  s5name="Z"  s5tsw=3.5ns  s5rlo=1Meg  s5rhi=1Meg)

.model DIN74_OC dinput (
+  s0name="0"  s0tsw=3.5ns  s0rlo=7.1   s0rhi=170   ;@6.8 ohms, .2V
+  s1name="1"  s1tsw=7.5ns  s1rlo=1Meg  s1rhi=1Meg
+  s2name="F"  s2tsw=3.5ns  s2rlo=41.8  s2rhi=107   ;@30.1 ohms, 1.4V
+  s3name="R"  s3tsw=3.5ns  s3rlo=41.8  s3rhi=107   ;@30.1 ohms, 1.4V
+  s4name="X"  s4tsw=3.5ns  s4rlo=41.8  s4rhi=107   ;@30.1 ohms, 1.4V
+  s5name="Z"  s5tsw=7.5ns  s5rlo=1Meg  s5rhi=1Meg)


*****74AC I/O MODELS*****

* These parts were derived from the National FACT Advanced CMOS
* Data Book, 1993. Pages 1-3 to 20, 4-7, 4-8
* TI Advanced CMOS Logic Data Book, 1993 Pages 2-4, 2-5, 2-53
* The open collector tsw parameters were measured with a
* 1K ohm pullup resistor.

.model IO_AC uio (
+  DRVH=20 DRVL=10
+  INLD=4.5pF
+  ATOD1="ATOD_AC" ATOD2="ATOD_AC_NX"
+  ATOD3="ATOD_AC" ATOD4="ATOD_AC_NX"
+  DTOA1="DTOA_AC" DTOA2="DTOA_AC"
+  DTOA3="DTOA_AC" DTOA4="DTOA_AC"
+  TSWHL1=769ps TSWHL2=769ps
+  TSWHL3=769ps TSWHL4=769ps
+  TSWLH1=2.971ns TSWLH2=2.971ns
+  TSWLH3=2.971ns TSWLH4=2.971ns
+  DIGPOWER="DIGIFPWR")

.model IO_AC_OC uio (
+  DRVH=1MEG DRVL=10
+  INLD=4.5pF
+  ATOD1="ATOD_AC" ATOD2="ATOD_AC_NX"
+  ATOD3="ATOD_AC" ATOD4="ATOD_AC_NX"
+  DTOA1="DTOA_AC_OC" DTOA2="DTOA_AC_OC"
+  DTOA3="DTOA_AC_OC" DTOA4="DTOA_AC_OC"
+  TSWHL1=1.088ns TSWHL2=1.088ns
+  TSWHL3=1.088ns TSWHL4=1.088ns
+  TSWLH1=2.949ns TSWLH2=2.949ns
+  TSWLH3=2.949ns TSWLH4=2.949ns
+  DIGPOWER="DIGIFPWR")

.model IO_AC_OC_ST uio (
+  DRVH=1MEG DRVL=10
+  INLD=4.5pF
+  ATOD1="ATOD_AC_ST" ATOD2="ATOD_AC_ST"
+  ATOD3="ATOD_AC_ST" ATOD4="ATOD_AC_ST"
+  DTOA1="DTOA_AC_OC" DTOA2="DTOA_AC_OC"
+  DTOA3="DTOA_AC_OC" DTOA4="DTOA_AC_OC"
+  TSWHL1=1.088ns TSWHL2=1.088ns
+  TSWHL3=1.088ns TSWHL4=1.088ns
+  TSWLH1=2.949ns TSWLH2=2.949ns
+  TSWLH3=2.949ns TSWLH4=2.949ns
+  DIGPOWER="DIGIFPWR")

.model IO_AC_ST uio (
+  DRVH=20 DRVL=10
+  INLD=4.5pF
+  ATOD1="ATOD_AC_ST" ATOD2="ATOD_AC_ST"
+  ATOD3="ATOD_AC_ST" ATOD4="ATOD_AC_ST"
+  DTOA1="DTOA_AC" DTOA2="DTOA_AC"
+  DTOA3="DTOA_AC" DTOA4="DTOA_AC"
+  TSWHL1=769ps TSWHL2=769ps
+  TSWHL3=769ps TSWHL4=769ps
+  TSWLH1=2.971ns TSWLH2=2.971ns
+  TSWLH3=2.971ns TSWLH4=2.971ns
+  DIGPOWER="DIGIFPWR")

* 74AC ATOD SUBCIRCUIT INTERFACES
.subckt ATOD_AC A D DPWR DGND
+  params: CAPACITANCE=0
O1 A DGND DO74AC DGTLNET=D IO_AC
C1 A DGND {CAPACITANCE+.1P}
R1 A 1 100
D1 1 DPWR D74
R2 1 2 170
C2 2 0 1P
.ends

.subckt ATOD_AC_NX A D DPWR DGND
+  params: CAPACITANCE=0
O1 A DGND DO74AC_NX DGTLNET=D IO_AC
C1 A DGND {CAPACITANCE+.1P}
R1 A 1 100
D1 1 DPWR D74
R2 1 2 170
C2 2 0 1P
.ends

.subckt ATOD_AC_ST A D DPWR DGND
+  params: CAPACITANCE=0
O1 A DGND DO74AC_ST DGTLNET=D IO_AC_ST
C1 A DGND {CAPACITANCE+.1P}
R1 A 1 100
D1 1 DPWR D74
R2 1 2 170
C2 2 0 1P
.ends

* 74AC DTOA SUBCIRCUIT INTERFACES
.subckt DTOA_AC D A DPWR DGND
+  params: CAPACITANCE=0 DRVH=0 DRVL=0
N1 A DGND DPWR DIN74AC DGTLNET=D IO_AC
CLOAD A DGND {CAPACITANCE+.1p}
.ends

.subckt DTOA_AC_OC D A DPWR DGND
+  params: CAPACITANCE=0 DRVH=0 DRVL=0
N1 A DGND DPWR DIN74AC_OC DGTLNET=D IO_AC_OC
CLOAD A DGND {CAPACITANCE+.1p}
.ends

* 74AC DIGITAL INPUT and OUTPUT MODELS
* All voltages were interpolated at VCC=5V.
* The _ST voltages were calculated as typical from the max values.
.model DO74AC doutput (
+  s0name="X"  s0vlo=1.5   s0vhi=3.5
+  s1name="1"  s1vlo=3.5   s1vhi=7
+  s2name="F"  s2vlo=2.45  s2vhi=3.5
+  s3name="F"  s3vlo=1.5   s3vhi=2.55
+  s4name="X"  s4vlo=1.5   s4vhi=3.5
+  s5name="0"  s5vlo=-.5  s5vhi=1.5
+  s6name="R"  s6vlo=1.5   s6vhi=2.55
+  s7name="R"  s7vlo=2.45  s7vhi=3.5)

.model DO74AC_NX doutput (
+  s0name="0"  s0vlo=-.5  s0vhi=2.5
+  s1name="1"  s1vlo=2.5   s1vhi=7)

.model DO74AC_ST doutput (
+  s0name="0"  s0vlo=-.5  s0vhi=2.95
+  s1name="1"  s1vlo=1.6    s1vhi=7)

.model DIN74AC dinput (
+  s0name="0"  s0tsw=2ns  s0rlo=1     s0rhi=5000
+  s1name="1"  s1tsw=3ns  s1rlo=500   s1rhi=1
+  s2name="F"  s2tsw=2ns  s2rlo=26.8  s2rhi=26.8   ;@13.4 ohms, 2.5V
+  s3name="R"  s3tsw=2ns  s3rlo=26.8  s3rhi=26.8   ;@13.4 ohms, 2.5V
+  s4name="X"  s4tsw=2ns  s4rlo=26.8  s4rhi=26.8   ;@13.4 ohms, 2.5V
+  s5name="Z"  s5tsw=2ns  s5rlo=1Meg  s5rhi=1Meg)

.model DIN74AC_OC dinput (
+  s0name="0"  s0tsw=2ns  s0rlo=1     s0rhi=5000
+  s1name="1"  s1tsw=3ns  s1rlo=1Meg  s1rhi=1Meg
+  s2name="F"  s2tsw=2ns  s2rlo=26.8  s2rhi=26.8   ;@13.4 ohms, 2.5V
+  s3name="R"  s3tsw=2ns  s3rlo=26.8  s3rhi=26.8   ;@13.4 ohms, 2.5V
+  s4name="X"  s4tsw=2ns  s4rlo=26.8  s4rhi=26.8   ;@13.4 ohms, 2.5V
+  s5name="Z"  s5tsw=2ns  s5rlo=1Meg  s5rhi=1Meg)


*****74ACT I/O MODELS*****

* These parts were derived from the National FACT Advanced CMOS
* Data Book, 1993. Pages 4-8
* TI Advanced CMOS Logic Data Book, 1993 Pages 2-8, 2-57
* The open collector tsw parameters were measured with a
* 1K ohm pullup resistor.

.model IO_ACT uio (
+  DRVH=20 DRVL=10
+  INLD=4.5pF
+  ATOD1="ATOD_ACT" ATOD2="ATOD_ACT_NX"
+  ATOD3="ATOD_ACT" ATOD4="ATOD_ACT_NX"
+  DTOA1="DTOA_AC" DTOA2="DTOA_AC"
+  DTOA3="DTOA_AC" DTOA4="DTOA_AC"
+  TSWHL1=769ps TSWHL2=769ps
+  TSWHL3=769ps TSWHL4=769ps
+  TSWLH1=2.971ns TSWLH2=2.971ns
+  TSWLH3=2.971ns TSWLH4=2.971ns
+  DIGPOWER="DIGIFPWR")

.model IO_ACT_OC uio (
+  DRVH=1MEG DRVL=10
+  INLD=4.5pF
+  ATOD1="ATOD_ACT" ATOD2="ATOD_ACT_NX"
+  ATOD3="ATOD_ACT" ATOD4="ATOD_ACT_NX"
+  DTOA1="DTOA_AC_OC" DTOA2="DTOA_AC_OC"
+  DTOA3="DTOA_AC_OC" DTOA4="DTOA_AC_OC"
+  TSWHL1=1.088ns TSWHL2=1.088ns
+  TSWHL3=1.088ns TSWHL4=1.088ns
+  TSWLH1=2.949ns TSWLH2=2.949ns
+  TSWLH3=2.949ns TSWLH4=2.949ns
+  DIGPOWER="DIGIFPWR")

.model IO_ACT_OC_ST uio (
+  DRVH=1MEG DRVL=10
+  INLD=4.5pF
+  ATOD1="ATOD_ACT_ST" ATOD2="ATOD_ACT_ST"
+  ATOD3="ATOD_ACT_ST" ATOD4="ATOD_ACT_ST"
+  DTOA1="DTOA_AC_OC" DTOA2="DTOA_AC_OC"
+  DTOA3="DTOA_AC_OC" DTOA4="DTOA_AC_OC"
+  TSWHL1=1.088ns TSWHL2=1.088ns
+  TSWHL3=1.088ns TSWHL4=1.088ns
+  TSWLH1=2.949ns TSWLH2=2.949ns
+  TSWLH3=2.949ns TSWLH4=2.949ns
+  DIGPOWER="DIGIFPWR")

.model IO_ACT_ST uio (
+  DRVH=20 DRVL=10
+  INLD=4.5pF
+  ATOD1="ATOD_ACT_ST" ATOD2="ATOD_ACT_ST"
+  ATOD3="ATOD_ACT_ST" ATOD4="ATOD_ACT_ST"
+  DTOA1="DTOA_AC" DTOA2="DTOA_AC"
+  DTOA3="DTOA_AC" DTOA4="DTOA_AC"
+  TSWHL1=769ps TSWHL2=769ps
+  TSWHL3=769ps TSWHL4=769ps
+  TSWLH1=2.971ns TSWLH2=2.971ns
+  TSWLH3=2.971ns TSWLH4=2.971ns
+  DIGPOWER="DIGIFPWR")

* 74ACT ATOD SUBCIRCUIT INTERFACES
.subckt ATOD_ACT A D DPWR DGND
+  params: CAPACITANCE=0
O1 A DGND DO74ACT DGTLNET=D IO_ACT
C1 A DGND {CAPACITANCE+.1P}
R1 A 1 100
D1 1 DPWR D74
R2 1 2 170
C2 2 0 1P
.ends

.subckt ATOD_ACT_NX A D DPWR DGND
+  params: CAPACITANCE=0
O1 A DGND DO74ACT_NX DGTLNET=D IO_ACT
C1 A DGND {CAPACITANCE+.1P}
R1 A 1 100
D1 1 DPWR D74
R2 1 2 170
C2 2 0 1P
.ends

.subckt ATOD_ACT_ST A D DPWR DGND
+  params: CAPACITANCE=0
O1 A DGND DO74ACT_ST DGTLNET=D IO_ACT_ST
C1 A DGND {CAPACITANCE+.1P}
R1 A 1 100
D1 1 DPWR D74
R2 1 2 170
C2 2 0 1P
.ends

* 74ACT DIGITAL OUTPUT MODELS
* All voltages were interpolated at VCC=5V.
.model DO74ACT doutput (
+  s0name="X"  s0vlo=.8   s0vhi=2
+  s1name="1"  s1vlo=2   s1vhi=6.5
+  s2name="F"  s2vlo=1.35  s2vhi=2
+  s3name="F"  s3vlo=.8   s3vhi=1.45
+  s4name="X"  s4vlo=.8   s4vhi=2
+  s5name="0"  s5vlo=-.5  s5vhi=.8
+  s6name="R"  s6vlo=.8   s6vhi=1.45
+  s7name="R"  s7vlo=1.35  s7vhi=2)

.model DO74ACT_NX doutput (
+  s0name="0"  s0vlo=-.5  s0vhi=1.4
+  s1name="1"  s1vlo=1.4   s1vhi=6.5)

.model DO74ACT_ST doutput (
+  s0name="0"  s0vlo=-.5  s0vhi=1.7
+  s1name="1"  s1vlo=.9    s1vhi=6.5)


*****74ALS I/O MODELS (00)*****

* These parts were derived from the TI ALS/AS Logic Data Book, 1986
* Pages 2-4, 2-8, 4-14 to 24
* The open collector tsw parameters were measured with a
* 2k ohm pullup resistor.

.model IO_ALS00 uio (
+  DRVH=50 DRVL=50
+  ATOD1="ATOD_ALS00" ATOD2="ATOD_ALS00_NX"
+  ATOD3="ATOD_ALS00" ATOD4="ATOD_ALS00_NX"
+  DTOA1="DTOA_ALS00" DTOA2="DTOA_ALS00"
+  DTOA3="DTOA_ALS00" DTOA4="DTOA_ALS00"
+  TSWHL1=1.37ns TSWHL2=1.37ns
+  TSWHL3=1.37ns TSWHL4=1.37ns
+  TSWLH1=3.12ns TSWLH2=3.12ns
+  TSWLH3=3.12ns TSWLH4=3.12ns
*+  TPWRT=2.95ns Not Yet Supported
+  DIGPOWER="DIGIFPWR")

.model IO_ALS00_OC uio (
+  DRVH=1MEG DRVL=50
+  ATOD1="ATOD_ALS00" ATOD2="ATOD_ALS00_NX"
+  ATOD3="ATOD_ALS00" ATOD4="ATOD_ALS00_NX"
+  DTOA1="DTOA_ALS00_OC" DTOA2="DTOA_ALS00_OC"
+  DTOA3="DTOA_ALS00_OC" DTOA4="DTOA_ALS00_OC"
+  TSWHL1=2.057ns TSWHL2=2.057ns
+  TSWHL3=2.057ns TSWHL4=2.057ns
+  TSWLH1=950ps TSWLH2=950ps
+  TSWLH3=950ps TSWLH4=950ps
*+  TPWRT=2.95ns Not Yet Supported
+  DIGPOWER="DIGIFPWR")

.model IO_ALS00_OC_ST uio (
+  DRVH=1MEG DRVL=50
+  ATOD1="ATOD_ALS00_ST" ATOD2="ATOD_ALS00_ST"
+  ATOD3="ATOD_ALS00_ST" ATOD4="ATOD_ALS00_ST"
+  DTOA1="DTOA_ALS00_OC" DTOA2="DTOA_ALS00_OC"
+  DTOA3="DTOA_ALS00_OC" DTOA4="DTOA_ALS00_OC"
+  TSWHL1=2.057ns TSWHL2=2.057ns
+  TSWHL3=2.057ns TSWHL4=2.057ns
+  TSWLH1=950ps TSWLH2=950ps
+  TSWLH3=950ps TSWLH4=950ps
*+  TPWRT=2.95ns Not Yet Supported
+  DIGPOWER="DIGIFPWR")

.model IO_ALS00_ST uio (
+  DRVH=50 DRVL=50
+  ATOD1="ATOD_ALS00_ST" ATOD2="ATOD_ALS00_ST"
+  ATOD3="ATOD_ALS00_ST" ATOD4="ATOD_ALS00_ST"
+  DTOA1="DTOA_ALS00" DTOA2="DTOA_ALS00"
+  DTOA3="DTOA_ALS00" DTOA4="DTOA_ALS00"
+  TSWHL1=1.37ns TSWHL2=1.37ns
+  TSWHL3=1.37ns TSWHL4=1.37ns
+  TSWLH1=3.12ns TSWLH2=3.12ns
+  TSWLH3=3.12ns TSWLH4=3.12ns
*+  TPWRT=2.95ns Not Yet Supported
+  DIGPOWER="DIGIFPWR")

* 74ALS(00) ATOD SUBCIRCUIT INTERFACES
* The resistance was determined by taking R1 on Pg. 4-14
* and multiplying by the factor of 10, where 10 was calculated
* by taking the typical IIL divided by the value given on Pg. 4-14

.subckt ATOD_ALS00 A D DPWR DGND
+  params: CAPACITANCE=0
O1 A DGND DO74ALS00 DGTLNET=D IO_ALS00
C1 A DGND {CAPACITANCE+.1P}
R1 DPWR 1 370K
D1 DGND A D74SCLMP
D2 1 A D74
D3 1 2 D74
D4 2 A D74S
D5 2 3 D74
D6 3 DGND D74
.ends

.subckt ATOD_ALS00_NX A D DPWR DGND
+  params: CAPACITANCE=0
O1 A DGND DO74ALS00_NX DGTLNET=D IO_ALS00
C1 A DGND {CAPACITANCE+.1P}
R1 DPWR 1 370K
D1 DGND A D74SCLMP
D2 1 A D74
D3 1 2 D74
D4 2 A D74S
D5 2 3 D74
D6 3 DGND D74
.ends

.subckt ATOD_ALS00_ST A D DPWR DGND
+  params: CAPACITANCE=0
O1 A DGND DO74ALS00_ST DGTLNET=D IO_ALS00_ST
C1 A DGND {CAPACITANCE+.1P}
R1 DPWR 1 370K
D1 DGND A D74SCLMP
D2 1 A D74
D3 1 2 D74
D4 2 A D74S
D5 2 3 D74
D6 3 DGND D74
.ends

* 74ALS(00) DTOA SUBCIRCUIT INTERFACES
.subckt DTOA_ALS00 D A DPWR DGND
+  params: CAPACITANCE=0 DRVH=0 DRVL=0
N1 A DGND DPWR DIN74ALS00 DGTLNET=D IO_ALS00
CLOAD A DGND {CAPACITANCE+.1p}
.ends

.subckt DTOA_ALS00_OC D A DPWR DGND
+  params: CAPACITANCE=0 DRVH=0 DRVL=0
N1 A DGND DPWR DIN74ALS00_OC DGTLNET=D IO_ALS00_OC
CLOAD A DGND {CAPACITANCE+.1p}
.ends

* 74ALS(00) DIGITAL INPUT and OUTPUT MODELS
.model DO74ALS00 doutput (
+  s0name="X"  s0vlo=.8    s0vhi=2
+  s1name="1"  s1vlo=2     s1vhi=7
+  s2name="F"  s2vlo=1.35  s2vhi=2
+  s3name="F"  s3vlo=.8    s3vhi=1.45
+  s4name="X"  s4vlo=.8    s4vhi=2
+  s5name="0"  s5vlo=-1.5  s5vhi=.8
+  s6name="R"  s6vlo=.8    s6vhi=1.45
+  s7name="R"  s7vlo=1.35  s7vhi=2)

.model DO74ALS00_NX doutput (
+  s0name="0"  s0vlo=-1.5  s0vhi=1.4
+  s1name="1"  s1vlo=1.4   s1vhi=7)

.model DO74ALS00_ST doutput (
+  s0name="0"  s0vlo=-1.5  s0vhi=1.7
+  s1name="1"  s1vlo=.9    s1vhi=7)

*switching times derived at 50pF
.model DIN74ALS00 dinput (
+  s0name="0"  s0tsw=2ns  s0rlo=24.2  s0rhi=460     ;@23 ohms, .25V
+  s1name="1"  s1tsw=4ns  s1rlo=134   s1rhi=69      ;@45.5 ohms, 3.3V
+  s2name="F"  s2tsw=2ns  s2rlo=45.5  s2rhi=111.5   ;@32.3 ohms, 1.45V
+  s3name="R"  s3tsw=2ns  s3rlo=45.5  s3rhi=111.5   ;@32.3 ohms, 1.45V
+  s4name="X"  s4tsw=2ns  s4rlo=45.5  s4rhi=111.5   ;@32.3 ohms, 1.45V
+  s5name="Z"  s5tsw=2ns  s5rlo=1Meg  s5rhi=1Meg)

.model DIN74ALS00_OC dinput (
+  s0name="0"  s0tsw=2ns  s0rlo=24.2  s0rhi=460     ;@23 ohms, .25V
+  s1name="1"  s1tsw=4ns  s1rlo=1Meg  s1rhi=1Meg
+  s2name="F"  s2tsw=2ns  s2rlo=45.5  s2rhi=111.5   ;@32.3 ohms, 1.45V
+  s3name="R"  s3tsw=2ns  s3rlo=45.5  s3rhi=111.5   ;@32.3 ohms, 1.45V
+  s4name="X"  s4tsw=2ns  s4rlo=45.5  s4rhi=111.5   ;@32.3 ohms, 1.45V
+  s5name="Z"  s5tsw=4ns  s5rlo=1Meg  s5rhi=1Meg)


*****74ALS I/O MODELS (000)*****

* These parts were derived from the TI ALS/AS Logic Data Book, 1986
* Pages 2-826, 2-832, 4-14 to 24
* The open collector tsw parameters were measured with a
* 680 ohm pullup resistor.

.model IO_ALS000 uio (
+  DRVH=50 DRVL=50
+  ATOD1="ATOD_ALS00" ATOD2="ATOD_ALS00_NX"
+  ATOD3="ATOD_ALS00" ATOD4="ATOD_ALS00_NX"
+  DTOA1="DTOA_ALS000" DTOA2="DTOA_ALS000"
+  DTOA3="DTOA_ALS000" DTOA4="DTOA_ALS000"
+  TSWHL1=1.714ns TSWHL2=1.714ns
+  TSWHL3=1.714ns TSWHL4=1.714ns
+  TSWLH1=1.934ns TSWLH2=1.934ns
+  TSWLH3=1.934ns TSWLH4=1.934ns
*+  TPWRT=2.95ns Not Yet Supported
+  DIGPOWER="DIGIFPWR")

.model IO_ALS000_OC uio (
+  DRVH=1MEG DRVL=50
+  ATOD1="ATOD_ALS00" ATOD2="ATOD_ALS00_NX"
+  ATOD3="ATOD_ALS00" ATOD4="ATOD_ALS00_NX"
+  DTOA1="DTOA_ALS000_OC" DTOA2="DTOA_ALS000_OC"
+  DTOA3="DTOA_ALS000_OC" DTOA4="DTOA_ALS000_OC"
+  TSWHL1=2.019ns TSWHL2=2.019ns
+  TSWHL3=2.019ns TSWHL4=2.019ns
+  TSWLH1=327ps TSWLH2=327ps
+  TSWLH3=327ps TSWLH4=327ps
*+  TPWRT=2.95ns Not Yet Supported
+  DIGPOWER="DIGIFPWR")

.model IO_ALS000_OC_ST uio (
+  DRVH=1MEG DRVL=50
+  ATOD1="ATOD_ALS00_ST" ATOD2="ATOD_ALS00_ST"
+  ATOD3="ATOD_ALS00_ST" ATOD4="ATOD_ALS00_ST"
+  DTOA1="DTOA_ALS000_OC" DTOA2="DTOA_ALS000_OC"
+  DTOA3="DTOA_ALS000_OC" DTOA4="DTOA_ALS000_OC"
+  TSWHL1=2.019ns TSWHL2=2.019ns
+  TSWHL3=2.019ns TSWHL4=2.019ns
+  TSWLH1=327ps TSWLH2=327ps
+  TSWLH3=327ps TSWLH4=327ps
+  DIGPOWER="DIGIFPWR")

.model IO_ALS000_ST uio (
+  DRVH=50 DRVL=50
+  ATOD1="ATOD_ALS00_ST" ATOD2="ATOD_ALS00_ST"
+  ATOD3="ATOD_ALS00_ST" ATOD4="ATOD_ALS00_ST"
+  DTOA1="DTOA_ALS000" DTOA2="DTOA_ALS000"
+  DTOA3="DTOA_ALS000" DTOA4="DTOA_ALS000"
+  TSWHL1=1.714ns TSWHL2=1.714ns
+  TSWHL3=1.714ns TSWHL4=1.714ns
+  TSWLH1=1.934ns TSWLH2=1.934ns
+  TSWLH3=1.934ns TSWLH4=1.934ns
*+  TPWRT=2.95ns Not Yet Supported
+  DIGPOWER="DIGIFPWR")

.model IO_ALS_25 uio (
+  DRVH=75 DRVL=75
+  ATOD1="ATOD_ALS00" ATOD2="ATOD_ALS00_NX"
+  ATOD3="ATOD_ALS00" ATOD4="ATOD_ALS00_NX"
+  DTOA1="DTOA_ALS000" DTOA2="DTOA_ALS000"
+  DTOA3="DTOA_ALS000" DTOA4="DTOA_ALS000"
+  TSWHL1=1.714ns TSWHL2=1.714ns
+  TSWHL3=1.714ns TSWHL4=1.714ns
+  TSWLH1=1.934ns TSWLH2=1.934ns
+  TSWLH3=1.934ns TSWLH4=1.934ns
*+  TPWRT=2.95ns Not Yet Supported
+  DIGPOWER="DIGIFPWR")

* 74ALS(000) DTOA SUBCIRCUIT INTERFACES
.subckt DTOA_ALS000 D A DPWR DGND
+  params: CAPACITANCE=0 DRVH=0 DRVL=0
N1 A DGND DPWR DIN74ALS000 DGTLNET=D IO_ALS000
CLOAD A DGND {CAPACITANCE+.1p}
.ends

.subckt DTOA_ALS000_OC D A DPWR DGND
+  params: CAPACITANCE=0 DRVH=0 DRVL=0
N1 A DGND DPWR DIN74ALS000_OC DGTLNET=D IO_ALS000_OC
CLOAD A DGND {CAPACITANCE+.1p}
.ends

* 74ALS(000) DIGITAL INPUT MODELS
*switching times derived at 50pF
.model DIN74ALS000 dinput (
+  s0name="0"  s0tsw=2ns    s0rlo=7.9   s0rhi=150     ;@7.5 ohms, .25V
+  s1name="1"  s1tsw=3.5ns  s1rlo=126   s1rhi=70.9    ;@45.5 ohms, 3.2V
+  s2name="F"  s2tsw=2ns    s2rlo=26.1  s2rhi=63.9    ;@18.5 ohms, 1.45V
+  s3name="R"  s3tsw=2ns    s3rlo=26.1  s3rhi=63.9    ;@18.5 ohms, 1.45V
+  s4name="X"  s4tsw=2ns    s4rlo=26.1  s4rhi=63.9    ;@18.5 ohms, 1.45V
+  s5name="Z"  s5tsw=2ns    s5rlo=1Meg  s5rhi=1Meg)

.model DIN74ALS000_OC dinput (
+  s0name="0"  s0tsw=2ns    s0rlo=7.9   s0rhi=150     ;@7.5 ohms, .25V
+  s1name="1"  s1tsw=3.5ns  s1rlo=1Meg  s1rhi=1Meg
+  s2name="F"  s2tsw=2ns    s2rlo=26.1  s2rhi=63.9    ;@18.5 ohms, 1.45V
+  s3name="R"  s3tsw=2ns    s3rlo=26.1  s3rhi=63.9    ;@18.5 ohms, 1.45V
+  s4name="X"  s4tsw=2ns    s4rlo=26.1  s4rhi=63.9    ;@18.5 ohms, 1.45V
+  s5name="Z"  s5tsw=3.5ns  s5rlo=1Meg  s5rhi=1Meg)


*****74AS I/O MODELS (00)*****

* These parts were derived from the TI ALS/AS Logic Data Book, 1986
* Pages 2-5, 2-136, 2-593, 4-14 to 24
* The open collector tsw parameters were measured with a
* 500 ohm pullup resistor.

.model IO_AS00 uio (
+  DRVH=26 DRVL=26
+  ATOD1="ATOD_AS00" ATOD2="ATOD_AS00_NX"
+  ATOD3="ATOD_AS00" ATOD4="ATOD_AS00_NX"
+  DTOA1="DTOA_AS00" DTOA2="DTOA_AS00"
+  DTOA3="DTOA_AS00" DTOA4="DTOA_AS00"
+  TSWHL1=1.102ns TSWHL2=1.102ns
+  TSWHL3=1.102ns TSWHL4=1.102ns
+  TSWLH1=1.180ns TSWLH2=1.180ns
+  TSWLH3=1.180ns TSWLH4=1.180ns
*+  TPWRT=1.6ns Not Yet Supported
+  DIGPOWER="DIGIFPWR")

.model IO_AS00_OC uio (
+  DRVH=1MEG DRVL=26
+  ATOD1="ATOD_AS00" ATOD2="ATOD_AS00_NX"
+  ATOD3="ATOD_AS00" ATOD4="ATOD_AS00_NX"
+  DTOA1="DTOA_AS00_OC" DTOA2="DTOA_AS00_OC"
+  DTOA3="DTOA_AS00_OC" DTOA4="DTOA_AS00_OC"
+  TSWHL1=1.266ns TSWHL2=1.266ns
+  TSWHL3=1.266ns TSWHL4=1.266ns
+  TSWLH1=231ps TSWLH2=231ps
+  TSWLH3=231ps TSWLH4=231ps
*+  TPWRT=1.6ns Not Yet Supported
+  DIGPOWER="DIGIFPWR")

.model IO_AS00_OC_ST uio (
+  DRVH=1MEG DRVL=26
+  ATOD1="ATOD_AS00_ST" ATOD2="ATOD_AS00_ST"
+  ATOD3="ATOD_AS00_ST" ATOD4="ATOD_AS00_ST"
+  DTOA1="DTOA_AS00_OC" DTOA2="DTOA_AS00_OC"
+  DTOA3="DTOA_AS00_OC" DTOA4="DTOA_AS00_OC"
+  TSWHL1=1.266ns TSWHL2=1.266ns
+  TSWHL3=1.266ns TSWHL4=1.266ns
+  TSWLH1=231ps TSWLH2=231ps
+  TSWLH3=231ps TSWLH4=231ps
*+  TPWRT=1.6ns Not Yet Supported
+  DIGPOWER="DIGIFPWR")

.model IO_AS00_ST uio (
+  DRVH=26 DRVL=26
+  ATOD1="ATOD_AS00_ST" ATOD2="ATOD_AS00_ST"
+  ATOD3="ATOD_AS00_ST" ATOD4="ATOD_AS00_ST"
+  DTOA1="DTOA_AS00" DTOA2="DTOA_AS00"
+  DTOA3="DTOA_AS00" DTOA4="DTOA_AS00"
+  TSWHL1=1.102ns TSWHL2=1.102ns
+  TSWHL3=1.102ns TSWHL4=1.102ns
+  TSWLH1=1.180ns TSWLH2=1.180ns
+  TSWLH3=1.180ns TSWLH4=1.180ns
*+  TPWRT=1.6ns Not Yet Supported
+  DIGPOWER="DIGIFPWR")

* 74AS(00) ATOD SUBCIRCUIT INTERFACES
* The resistance was determined by taking R1 on Pg. 4-15
* and multiplying by the factor of 10, where 10 was calculated
* by taking the typical IIL divided by the value given on Pg. 4-14

.subckt ATOD_AS00 A D DPWR DGND
+  params: CAPACITANCE=0
O1 A DGND DO74AS00 DGTLNET=D IO_AS00
C1 A DGND {CAPACITANCE+.1P}
R1 DPWR 1 100K
D1 DGND A D74SCLMP
D2 1 A D74
D3 1 2 D74
D4 2 A D74S
D5 2 3 D74
D6 3 DGND D74
.ends

.subckt ATOD_AS00_NX A D DPWR DGND
+  params: CAPACITANCE=0
O1 A DGND DO74AS00_NX DGTLNET=D IO_AS00
C1 A DGND {CAPACITANCE+.1P}
R1 DPWR 1 100K
D1 DGND A D74SCLMP
D2 1 A D74
D3 1 2 D74
D4 2 A D74S
D5 2 3 D74
D6 3 DGND D74
.ends

.subckt ATOD_AS00_ST A D DPWR DGND
+  params: CAPACITANCE=0
O1 A DGND DO74AS00_ST DGTLNET=D IO_AS00_ST
C1 A DGND {CAPACITANCE+.1P}
R1 DPWR 1 100K
D1 DGND A D74SCLMP
D2 1 A D74
D3 1 2 D74
D4 2 A D74S
D5 2 3 D74
D6 3 DGND D74
.ends

* 74AS(00) DTOA SUBCIRCUIT INTERFACES
.subckt DTOA_AS00 D A DPWR DGND
+  params: CAPACITANCE=0 DRVH=0 DRVL=0
N1 A DGND DPWR DIN74AS00 DGTLNET=D IO_AS00
CLOAD A DGND {CAPACITANCE+.1p}
.ends

.subckt DTOA_AS00_OC D A DPWR DGND
+  params: CAPACITANCE=0 DRVH=0 DRVL=0
N1 A DGND DPWR DIN74AS00_OC DGTLNET=D IO_AS00_OC
CLOAD A DGND {CAPACITANCE+.1p}
.ends

* 74AS(00) DIGITAL INPUT and OUTPUT MODELS
.model DO74AS00 doutput (
+  s0name="X"  s0vlo=.8    s0vhi=2
+  s1name="1"  s1vlo=2     s1vhi=7
+  s2name="F"  s2vlo=1.35  s2vhi=2
+  s3name="F"  s3vlo=.8    s3vhi=1.45
+  s4name="X"  s4vlo=.8    s4vhi=2
+  s5name="0"  s5vlo=-1.2  s5vhi=.8
+  s6name="R"  s6vlo=.8    s6vhi=1.45
+  s7name="R"  s7vlo=1.35  s7vhi=2)

.model DO74AS00_NX doutput (
+  s0name="0"  s0vlo=-1.2  s0vhi=1.4
+  s1name="1"  s1vlo=1.4   s1vhi=7)

.model DO74AS00_ST doutput (
+  s0name="0"  s0vlo=-1.2  s0vhi=1.7
+  s1name="1"  s1vlo=.9    s1vhi=7)

*switching times derived at 50pF
.model DIN74AS00 dinput (
+  s0name="0"  s0tsw=1.25ns  s0rlo=6.45  s0rhi=85.7   ;@6 ohms, .35V
+  s1name="1"  s1tsw=2.25ns  s1rlo=73.5  s1rhi=37.9   ;@25 ohms, 3.3V
+  s2name="F"  s2tsw=1.25ns  s2rlo=17.4  s2rhi=40.6   ;@12.2 ohms, 1.5V
+  s3name="R"  s3tsw=1.25ns  s3rlo=17.4  s3rhi=40.6   ;@12.2 ohms, 1.5V
+  s4name="X"  s4tsw=1.25ns  s4rlo=17.4  s4rhi=40.6   ;@12.2 ohms, 1.5V
+  s5name="Z"  s5tsw=1.25ns  s5rlo=1Meg  s5rhi=1Meg)

.model DIN74AS00_OC dinput (
+  s0name="0"  s0tsw=1.25ns  s0rlo=6.45  s0rhi=85.7   ;@6 ohms, .35V