* ----------------------------------------------------------- PAL10H8 ------
*  20-Pin Small PAL Family
*
*  Programmable Logic Devices Databook, 1989, National Pages 2-3 to 2-22
*  bss    11/29/95
*
.SUBCKT PAL10H8 1 2 3 4 5 6 7 8 9 11 12 13 14 15 16 17 18 19
+     optional:  20=$G_DPWR 10=$G_DGND
+     params:  MNTYMXDLY=0 IO_LEVEL=0
+     text:  JEDFILE="PLD.JED"

U1 plandc(10,16) 20 10
+  2 1 3 4 5 6 7 8 9 11
+  row0 row20 row40 row60 row80 row100 row120 row140
+  row160 row180 row200 row220 row240 row260 row280 row300
+  D0_PLD IO_S FILE=|JEDFILE|
+  MNTYMXDLY={MNTYMXDLY} IO_LEVEL={IO_LEVEL}

U2 ORA(2,8) 20 10
+  row0 row20 row40 row60 row80 row100 row120 row140
+  row160 row180 row200 row220 row240 row260 row280 row300
+  19 18 17 16 15 14 13 12
+  DLY_10H8 IO_S MNTYMXDLY={MNTYMXDLY} IO_LEVEL={IO_LEVEL}

.model DLY_10H8 UGATE (tplhTY=25ns tplhMX=35ns tphlTY=25ns tphlMX=35ns)

.ends PAL10H8
*
*
* ----------------------------------------------------------- PAL16C1 ------
*  20-Pin Small PAL Family
*
*  Programmable Logic Devices Databook, 1989, National Pages 2-3 to 2-22
*  bss    11/29/95
*
.subckt PAL16C1 1 2 3 4 5 6 7 8 9 11 12 13 14 15 16 17 18 19
+     optional:  20=$G_DPWR 10=$G_DGND
+     params:  MNTYMXDLY=0 IO_LEVEL=0
+     text: JEDFILE="PLD.JED"

U1 PLANDC(16,16) 20 10
+  2 1 3 19 4 18 5 17 6 14 7 13 8 12 9 11
+  row1 row2 row3 row4 row5 row6 row7 row8 row9 row10
+  row11 row12 row13 row14 row15 row16
+  D0_PLD IO_S MNTYMXDLY={MNTYMXDLY} IO_LEVEL={IO_LEVEL}
+  FILE=|JEDFILE|

U2 ORA(8,2) 20 10
+  row1 row2 row3 row4 row5 row6 row7 row8
+  row9 row10 row11 row12 row13 row14 row15 row16
+  OR1 OR2
+  D0_GATE IO_S MNTYMXDLY={MNTYMXDLY} IO_LEVEL={IO_LEVEL}

U3 OR(2) 20 10
+  OR1 OR2 16
+  DLY_16C1 IO_S MNTYMXDLY={MNTYMXDLY} IO_LEVEL={IO_LEVEL}

U4 NOR(2) 20 10
+  OR1 OR2 15
+  DLY_16C1 IO_S MNTYMXDLY={MNTYMXDLY} IO_LEVEL={IO_LEVEL}

.model DLY_16C1 ugate (tplhTY=25ns tplhMX=35ns tphlTY=25ns tphlMX=35ns)

.ENDS PAL16C1
*
*
* ----------------------------------------------------------- PAL16C1A ------
*  20-Pin Small PAL Family
*
*  Programmable Logic Devices Databook, 1989, National Pages 2-3 to 2-22
*  bss    11/29/95
*
.subckt PAL16C1A 1 2 3 4 5 6 7 8 9 11 12 13 14 15 16 17 18 19
+     optional:  20=$G_DPWR 10=$G_DGND
+     params:  MNTYMXDLY=0 IO_LEVEL=0
+     text: JEDFILE="PLD.JED"

U1 PLANDC(16,16) 20 10
+  2 1 3 19 4 18 5 17 6 14 7 13 8 12 9 11
+  row1 row2 row3 row4 row5 row6 row7 row8 row9 row10
+  row11 row12 row13 row14 row15 row16
+  D0_PLD IO_S MNTYMXDLY={MNTYMXDLY} IO_LEVEL={IO_LEVEL}
+  FILE=|JEDFILE|

U2 ORA(8,2) 20 10
+  row1 row2 row3 row4 row5 row6 row7 row8
+  row9 row10 row11 row12 row13 row14 row15 row16
+  OR1 OR2
+  D0_GATE IO_S MNTYMXDLY={MNTYMXDLY} IO_LEVEL={IO_LEVEL}

U3 OR(2) 20 10
+  OR1 OR2 16
+  DLY_16C1A IO_S MNTYMXDLY={MNTYMXDLY} IO_LEVEL={IO_LEVEL}

U4 NOR(2) 20 10
+  OR1 OR2 15
+  DLY_16C1A IO_S MNTYMXDLY={MNTYMXDLY} IO_LEVEL={IO_LEVEL}

.model DLY_16C1A ugate (tplhMX=30ns tphlMX=30ns)

.ENDS PAL16C1A
*
*
* ----------------------------------------------------------- PAL16C1A2 ------
*  20-Pin Small PAL Family
*
*  Programmable Logic Devices Databook, 1989, National Pages 2-3 to 2-22
*  bss    11/29/95
*
.subckt PAL16C1A2 1 2 3 4 5 6 7 8 9 11 12 13 14 15 16 17 18 19
+     optional:  20=$G_DPWR 10=$G_DGND
+     params:  MNTYMXDLY=0 IO_LEVEL=0
+     text: JEDFILE="PLD.JED"

U1 PLANDC(16,16) 20 10
+  2 1 3 19 4 18 5 17 6 14 7 13 8 12 9 11
+  row1 row2 row3 row4 row5 row6 row7 row8 row9 row10
+  row11 row12 row13 row14 row15 row16
+  D0_PLD IO_S MNTYMXDLY={MNTYMXDLY} IO_LEVEL={IO_LEVEL}
+  FILE=|JEDFILE|

U2 ORA(8,2) 20 10
+  row1 row2 row3 row4 row5 row6 row7 row8
+  row9 row10 row11 row12 row13 row14 row15 row16
+  OR1 OR2
+  D0_GATE IO_S MNTYMXDLY={MNTYMXDLY} IO_LEVEL={IO_LEVEL}

U3 OR(2) 20 10
+  OR1 OR2 16
+  DLY_16C1A2 IO_S MNTYMXDLY={MNTYMXDLY} IO_LEVEL={IO_LEVEL}

U4 NOR(2) 20 10
+  OR1 OR2 15
+  DLY_16C1A2 IO_S MNTYMXDLY={MNTYMXDLY} IO_LEVEL={IO_LEVEL}

.model DLY_16C1A2 ugate (tplhMX=40ns tphlMX=40ns)

.ENDS PAL16C1A2
*
*
* ----------------------------------------------------------- PAL16R6 ------
*  20-Pin Medium PAL Family
*
*  Programmable Logic Devices Databook, 1989, National Pages 2-23 to 2-45
*  bss    11/30/95
*
.subckt PAL16R6 1 2 3 4 5 6 7 8 9 11 12 13 14 15 16 17 18 19
+     optional:  20=$G_DPWR 10=$G_DGND
+     params:  MNTYMXDLY=0 IO_LEVEL=0
+     text: JEDFILE="PLD.JED"

U1 PLANDC(16,64) 20 10
+  2 19 3 qb18b 4 qb17b 5 qb16b 6 qb15b 7 qb14b 8 qb13b 9 12
+  row00 row32 row64 row96 row128 row160 row192 row224
+  row256 row288 row320 row352 row384 row416 row448 row480
+  row512 row544 row576 row608 row640 row672 row704 row736
+  row768 row800 row832 row864 row896 row928 row960 row992
+  row1024 row1056 row1088 row1120 row1152 row1184 row1216 row1248
+  row1280 row1312 row1344 row1376 row1408 row1440 row1472 row1504
+  row1536 row1568 row1600 row1632 row1664 row1696 row1728 row1760
+  row1792 row1824 row1856 row1888 row1920 row1952 row1984 row2016
+  D0_PLD IO_AS00 MNTYMXDLY={MNTYMXDLY} IO_LEVEL={IO_LEVEL}
+  FILE=|JEDFILE|

U2 ORA(8,8) 20 10
+  $D_LO row32 row64 row96 row128 row160 row192 row224
+  row256 row288 row320 row352 row384 row416 row448 row480
+  row512 row544 row576 row608 row640 row672 row704 row736
+  row768 row800 row832 row864 row896 row928 row960 row992
+  row1024 row1056 row1088 row1120 row1152 row1184 row1216 row1248
+  row1280 row1312 row1344 row1376 row1408 row1440 row1472 row1504
+  row1536 row1568 row1600 row1632 row1664 row1696 row1728 row1760
+  $D_LO row1824 row1856 row1888 row1920 row1952 row1984 row2016
+  or19 or18 or17 or16 or15 or14 or13 or12
+  D0_GATE IO_AS00 MNTYMXDLY={MNTYMXDLY} IO_LEVEL={IO_LEVEL}

U3 DFF(6) 20 10
+  $D_HI $D_HI 1
+  or18 or17 or16 or15 or14 or13
+  q18 q17 q16 q15 q14 q13
+  qb18 qb17 qb16 qb15 qb14 qb13
+  D16R6FF IO_AS00 MNTYMXDLY={MNTYMXDLY} IO_LEVEL={IO_LEVEL}

U4 BUFA(6) 20 10
+  qb18 qb17 qb16 qb15 qb14 qb13
+  qb18b qb17b qb16b qb15b qb14b qb13b
+  D16R6BUF IO_AS00 MNTYMXDLY={MNTYMXDLY} IO_LEVEL={IO_LEVEL}

U5 INV3 20 10
+  or19 row00 19
+  D16R6T IO_AS00 MNTYMXDLY={MNTYMXDLY} IO_LEVEL={IO_LEVEL}

U6 INV3 20 10
+  or12 row1792 12
+  D16R6T IO_AS00 MNTYMXDLY={MNTYMXDLY} IO_LEVEL={IO_LEVEL}

U7 INV3A(6) 20 10
+  q18 q17 q16 q15 q14 q13
+  11bar
+  18 17 16 15 14 13
+  D16R6R IO_AS00 MNTYMXDLY={MNTYMXDLY} IO_LEVEL={IO_LEVEL}

U8 INV 20 10
+  11 11bar
+  D0_GATE IO_AS00 MNTYMXDLY={MNTYMXDLY} IO_LEVEL={IO_LEVEL}

.model D16R6FF ueff(twclklMN=25ns twclkhMN=25ns tsudclkMN=35ns)

.model D16R6BUF ugate(tplhTY=15ns tplhMX=25ns tphlTY=15ns tphlMX=25ns)

.model D16R6T utgate(tplhTY=25ns tplhMX=35ns tphlTY=25ns tphlMX=35ns
+		         tplzTY=25ns tplzMX=35ns tphzTY=25ns tphzMX=35ns
+		         tpzlTY=25ns tpzlMX=35ns tpzhTY=25ns tpzhMX=35ns)

.model D16R6R utgate(tplhTY=15ns tplhMX=25ns tphlTY=15ns tphlMX=25ns
+		         tplzTY=15ns tplzMX=25ns tphzTY=15ns tphzMX=25ns
+		         tpzlTY=15ns tpzlMX=25ns tpzhTY=15ns tpzhMX=25ns)

.ends PAL16R6
*
*
* ----------------------------------------------------------- PAL16R6A ------
*  20-Pin Medium PAL Family
*
*  Programmable Logic Devices Databook, 1989, National Pages 2-23 to 2-45
*  bss    12/1/95
*
.subckt PAL16R6A 1 2 3 4 5 6 7 8 9 11 12 13 14 15 16 17 18 19
+     optional:  20=$G_DPWR 10=$G_DGND
+     params:  MNTYMXDLY=0 IO_LEVEL=0
+     text: JEDFILE="PLD.JED"

U1 PLANDC(16,64) 20 10
+  2 19 3 qb18b 4 qb17b 5 qb16b 6 qb15b 7 qb14b 8 qb13b 9 12
+  row00 row32 row64 row96 row128 row160 row192 row224
+  row256 row288 row320 row352 row384 row416 row448 row480
+  row512 row544 row576 row608 row640 row672 row704 row736
+  row768 row800 row832 row864 row896 row928 row960 row992
+  row1024 row1056 row1088 row1120 row1152 row1184 row1216 row1248
+  row1280 row1312 row1344 row1376 row1408 row1440 row1472 row1504
+  row1536 row1568 row1600 row1632 row1664 row1696 row1728 row1760
+  row1792 row1824 row1856 row1888 row1920 row1952 row1984 row2016
+  D0_PLD IO_AS00 MNTYMXDLY={MNTYMXDLY} IO_LEVEL={IO_LEVEL}
+  FILE=|JEDFILE|

U2 ORA(8,8) 20 10
+  $D_LO row32 row64 row96 row128 row160 row192 row224
+  row256 row288 row320 row352 row384 row416 row448 row480
+  row512 row544 row576 row608 row640 row672 row704 row736
+  row768 row800 row832 row864 row896 row928 row960 row992
+  row1024 row1056 row1088 row1120 row1152 row1184 row1216 row1248
+  row1280 row1312 row1344 row1376 row1408 row1440 row1472 row1504
+  row1536 row1568 row1600 row1632 row1664 row1696 row1728 row1760
+  $D_LO row1824 row1856 row1888 row1920 row1952 row1984 row2016
+  or19 or18 or17 or16 or15 or14 or13 or12
+  D0_GATE IO_AS00 MNTYMXDLY={MNTYMXDLY} IO_LEVEL={IO_LEVEL}

U3 DFF(6) 20 10
+  $D_HI $D_HI 1
+  or18 or17 or16 or15 or14 or13
+  q18 q17 q16 q15 q14 q13
+  qb18 qb17 qb16 qb15 qb14 qb13
+  D16R6AFF IO_AS00 MNTYMXDLY={MNTYMXDLY} IO_LEVEL={IO_LEVEL}

U4 BUFA(6) 20 10
+  qb18 qb17 qb16 qb15 qb14 qb13
+  qb18b qb17b qb16b qb15b qb14b qb13b
+  D16R6ABUF IO_AS00 MNTYMXDLY={MNTYMXDLY} IO_LEVEL={IO_LEVEL}

U5 INV3 20 10
+  or19 row00 19
+  D16R6AT IO_AS00 MNTYMXDLY={MNTYMXDLY} IO_LEVEL={IO_LEVEL}

U6 INV3 20 10
+  or12 row1792 12
+  D16R6AT IO_AS00 MNTYMXDLY={MNTYMXDLY} IO_LEVEL={IO_LEVEL}

U7 INV3A(6) 20 10
+  q18 q17 q16 q15 q14 q13
+  11bar
+  18 17 16 15 14 13
+  D16R6AR IO_AS00 MNTYMXDLY={MNTYMXDLY} IO_LEVEL={IO_LEVEL}

U8 INV 20 10
+  11 11bar
+  D0_GATE IO_AS00 MNTYMXDLY={MNTYMXDLY} IO_LEVEL={IO_LEVEL}

.model D16R6AFF ueff(twclklMN=15ns twclkhMN=15ns tsudclkMN=25ns
+		          twclklTY=10ns twclkhTY=10ns tsudclkTY=16ns)

.model D16R6ABUF ugate(tplhTY=10ns tplhMX=15ns tphlTY=10ns tphlMX=15ns)

.model D16R6AT utgate(tplhTY=15ns tplhMX=25ns tphlTY=15ns tphlMX=25ns
+		         tplzTY=13ns tplzMX=25ns tphzTY=13ns tphzMX=25ns
+		         tpzlTY=10ns tpzlMX=25ns tpzhTY=10ns tpzhMX=25ns)

.model D16R6AR utgate(tplhTY=10ns tplhMX=15ns tphlTY=10ns tphlMX=15ns
+		         tplzTY=11ns tplzMX=20ns tphzTY=11ns tphzMX=20ns
+		         tpzlTY=10ns tpzlMX=20ns tpzhTY=10ns tpzhMX=20ns)

.ends PAL16R6A
*
*
* ----------------------------------------------------------- PAL16R6A2 ------
*  20-Pin Medium PAL Family
*
*  Programmable Logic Devices Databook, 1989, National Pages 2-23 to 2-45
*  bss    12/1/95
*
.subckt PAL16R6A2 1 2 3 4 5 6 7 8 9 11 12 13 14 15 16 17 18 19
+     optional:  20=$G_DPWR 10=$G_DGND
+     params:  MNTYMXDLY=0 IO_LEVEL=0
+     text: JEDFILE="PLD.JED"

U1 PLANDC(16,64) 20 10
+  2 19 3 qb18b 4 qb17b 5 qb16b 6 qb15b 7 qb14b 8 qb13b 9 12
+  row00 row32 row64 row96 row128 row160 row192 row224
+  row256 row288 row320 row352 row384 row416 row448 row480
+  row512 row544 row576 row608 row640 row672 row704 row736
+  row768 row800 row832 row864 row896 row928 row960 row992
+  row1024 row1056 row1088 row1120 row1152 row1184 row1216 row1248
+  row1280 row1312 row1344 row1376 row1408 row1440 row1472 row1504
+  row1536 row1568 row1600 row1632 row1664 row1696 row1728 row1760
+  row1792 row1824 row1856 row1888 row1920 row1952 row1984 row2016
+  D0_PLD IO_AS00 MNTYMXDLY={MNTYMXDLY} IO_LEVEL={IO_LEVEL}
+  FILE=|JEDFILE|

U2 ORA(8,8) 20 10
+  $D_LO row32 row64 row96 row128 row160 row192 row224
+  row256 row288 row320 row352 row384 row416 row448 row480
+  row512 row544 row576 row608 row640 row672 row704 row736
+  row768 row800 row832 row864 row896 row928 row960 row992
+  row1024 row1056 row1088 row1120 row1152 row1184 row1216 row1248
+  row1280 row1312 row1344 row1376 row1408 row1440 row1472 row1504
+  row1536 row1568 row1600 row1632 row1664 row1696 row1728 row1760
+  $D_LO row1824 row1856 row1888 row1920 row1952 row1984 row2016
+  or19 or18 or17 or16 or15 or14 or13 or12
+  D0_GATE IO_AS00 MNTYMXDLY={MNTYMXDLY} IO_LEVEL={IO_LEVEL}

U3 DFF(6) 20 10
+  $D_HI $D_HI 1
+  or18 or17 or16 or15 or14 or13
+  q18 q17 q16 q15 q14 q13
+  qb18 qb17 qb16 qb15 qb14 qb13
+  D16R6A2FF IO_AS00 MNTYMXDLY={MNTYMXDLY} IO_LEVEL={IO_LEVEL}

U4 BUFA(6) 20 10
+  qb18 qb17 qb16 qb15 qb14 qb13
+  qb18b qb17b qb16b qb15b qb14b qb13b
+  D16R6A2BUF IO_AS00 MNTYMXDLY={MNTYMXDLY} IO_LEVEL={IO_LEVEL}

U5 INV3 20 10
+  or19 row00 19
+  D16R6A2T IO_AS00 MNTYMXDLY={MNTYMXDLY} IO_LEVEL={IO_LEVEL}

U6 INV3 20 10
+  or12 row1792 12
+  D16R6A2T IO_AS00 MNTYMXDLY={MNTYMXDLY} IO_LEVEL={IO_LEVEL}

U7 INV3A(6) 20 10
+  q18 q17 q16 q15 q14 q13
+  11bar
+  18 17 16 15 14 13
+  D16R6A2R IO_AS00 MNTYMXDLY={MNTYMXDLY} IO_LEVEL={IO_LEVEL}

U8 INV 20 10
+  11 11bar
+  D0_GATE IO_AS00 MNTYMXDLY={MNTYMXDLY} IO_LEVEL={IO_LEVEL}

.model D16R6A2FF ueff(twclklMN=25ns twclkhMN=25ns tsudclkMN=35ns
+		            twclklTY=10ns twclkhTY=10ns tsudclkTY=25ns)

.model D16R6A2BUF ugate(tplhTY=15ns tplhMX=25ns tphlTY=15ns tphlMX=25ns)

.model D16R6A2T utgate(tplhTY=25ns tplhMX=35ns tphlTY=25ns tphlMX=35ns
+		         tplzTY=25ns tplzMX=35ns tphzTY=25ns tphzMX=35ns
+		         tpzlTY=25ns tpzlMX=35ns tpzhTY=25ns tpzhMX=35ns)

.model D16R6A2R utgate(tplhTY=15ns tplhMX=25ns tphlTY=15ns tphlMX=25ns
+		         tplzTY=15ns tplzMX=25ns tphzTY=15ns tphzMX=25ns
+		         tpzlTY=15ns tpzlMX=25ns tpzhTY=15ns tpzhMX=25ns)

.ends PAL16R6A2
*
*
* ----------------------------------------------------------- PAL16R6B ------
*  20-Pin Medium PAL Family
*
*  Programmable Logic Devices Databook, 1989, National Pages 2-23 to 2-45
*  bss    12/1/95
*
.subckt PAL16R6B 1 2 3 4 5 6 7 8 9 11 12 13 14 15 16 17 18 19
+     optional:  20=$G_DPWR 10=$G_DGND
+     params:  MNTYMXDLY=0 IO_LEVEL=0
+     text: JEDFILE="PLD.JED"

U1 PLANDC(16,64) 20 10
+  2 19 3 qb18b 4 qb17b 5 qb16b 6 qb15b 7 qb14b 8 qb13b 9 12
+  row00 row32 row64 row96 row128 row160 row192 row224
+  row256 row288 row320 row352 row384 row416 row448 row480
+  row512 row544 row576 row608 row640 row672 row704 row736
+  row768 row800 row832 row864 row896 row928 row960 row992
+  row1024 row1056 row1088 row1120 row1152 row1184 row1216 row1248
+  row1280 row1312 row1344 row1376 row1408 row1440 row1472 row1504
+  row1536 row1568 row1600 row1632 row1664 row1696 row1728 row1760
+  row1792 row1824 row1856 row1888 row1920 row1952 row1984 row2016
+  D0_PLD IO_AS00 MNTYMXDLY={MNTYMXDLY} IO_LEVEL={IO_LEVEL}
+  FILE=|JEDFILE|

U2 ORA(8,8) 20 10
+  $D_LO row32 row64 row96 row128 row160 row192 row224
+  row256 row288 row320 row352 row384 row416 row448 row480
+  row512 row544 row576 row608 row640 row672 row704 row736
+  row768 row800 row832 row864 row896 row928 row960 row992
+  row1024 row1056 row1088 row1120 row1152 row1184 row1216 row1248
+  row1280 row1312 row1344 row1376 row1408 row1440 row1472 row1504
+  row1536 row1568 row1600 row1632 row1664 row1696 row1728 row1760
+  $D_LO row1824 row1856 row1888 row1920 row1952 row1984 row2016
+  or19 or18 or17 or16 or15 or14 or13 or12
+  D0_GATE IO_AS00 MNTYMXDLY={MNTYMXDLY} IO_LEVEL={IO_LEVEL}

U3 DFF(6) 20 10
+  $D_HI $D_HI 1
+  or18 or17 or16 or15 or14 or13
+  q18 q17 q16 q15 q14 q13
+  qb18 qb17 qb16 qb15 qb14 qb13
+  D16R6BFF IO_AS00 MNTYMXDLY={MNTYMXDLY} IO_LEVEL={IO_LEVEL}

U4 BUFA(6) 20 10
+  qb18 qb17 qb16 qb15 qb14 qb13
+  qb18b qb17b qb16b qb15b qb14b qb13b
+  D16R6BBUF IO_AS00 MNTYMXDLY={MNTYMXDLY} IO_LEVEL={IO_LEVEL}

U5 INV3 20 10
+  or19 row00 19
+  D16R6BT IO_AS00 MNTYMXDLY={MNTYMXDLY} IO_LEVEL={IO_LEVEL}

U6 INV3 20 10
+  or12 row1792 12
+  D16R6BT IO_AS00 MNTYMXDLY={MNTYMXDLY} IO_LEVEL={IO_LEVEL}

U7 INV3A(6) 20 10
+  q18 q17 q16 q15 q14 q13
+  11bar
+  18 17 16 15 14 13
+  D16R6BR IO_AS00 MNTYMXDLY={MNTYMXDLY} IO_LEVEL={IO_LEVEL}

U8 INV 20 10
+  11 11bar
+  D0_GATE IO_AS00 MNTYMXDLY={MNTYMXDLY} IO_LEVEL={IO_LEVEL}

.model D16R6BFF ueff(twclklMN=10ns twclkhMN=10ns tsudclkMN=15ns
+		            twclklTY=5ns twclkhTY=5ns tsudclkTY=10ns)

.model D16R6BBUF ugate(tplhTY=8ns tplhMX=12ns tphlTY=8ns tphlMX=12ns)

.model D16R6BT utgate(tplhTY=11ns tplhMX=15ns tphlTY=11ns tphlMX=15ns
+		         tplzTY=11ns tplzMX=15ns tphzTY=11ns tphzMX=15ns
+		         tpzlTY=11ns tpzlMX=20ns tpzhTY=11ns tpzhMX=20ns)

.model D16R6BR utgate(tplhTY=8ns tplhMX=12ns tphlTY=8ns tphlMX=12ns
+		         tplzTY=10ns tplzMX=15ns tphzTY=10ns tphzMX=15ns
+		         tpzlTY=10ns tpzlMX=15ns tpzhTY=10ns tpzhMX=15ns)

.ends PAL16R6B
*
*
* ----------------------------------------------------------- PAL16R6B2 ------
*  20-Pin Medium PAL Family
*
*  Programmable Logic Devices Databook, 1989, National Pages 2-23 to 2-45
*  bss    12/1/95
*
.subckt PAL16R6B2 1 2 3 4 5 6 7 8 9 11 12 13 14 15 16 17 18 19
+     optional:  20=$G_DPWR 10=$G_DGND
+     params:  MNTYMXDLY=0 IO_LEVEL=0
+     text: JEDFILE="PLD.JED"

U1 PLANDC(16,64) 20 10
+  2 19 3 qb18b 4 qb17b 5 qb16b 6 qb15b 7 qb14b 8 qb13b 9 12
+  row00 row32 row64 row96 row128 row160 row192 row224
+  row256 row288 row320 row352 row384 row416 row448 row480
+  row512 row544 row576 row608 row640 row672 row704 row736
+  row768 row800 row832 row864 row896 row928 row960 row992
+  row1024 row1056 row1088 row1120 row1152 row1184 row1216 row1248
+  row1280 row1312 row1344 row1376 row1408 row1440 row1472 row1504
+  row1536 row1568 row1600 row1632 row1664 row1696 row1728 row1760
+  row1792 row1824 row1856 row1888 row1920 row1952 row1984 row2016
+  D0_PLD IO_AS00 MNTYMXDLY={MNTYMXDLY} IO_LEVEL={IO_LEVEL}
+  FILE=|JEDFILE|

U2 ORA(8,8) 20 10
+  $D_LO row32 row64 row96 row128 row160 row192 row224
+  row256 row288 row320 row352 row384 row416 row448 row480
+  row512 row544 row576 row608 row640 row672 row704 row736
+  row768 row800 row832 row864 row896 row928 row960 row992
+  row1024 row1056 row1088 row1120 row1152 row1184 row1216 row1248
+  row1280 row1312 row1344 row1376 row1408 row1440 row1472 row1504
+  row1536 row1568 row1600 row1632 row1664 row1696 row1728 row1760
+  $D_LO row1824 row1856 row1888 row1920 row1952 row1984 row2016
+  or19 or18 or17 or16 or15 or14 or13 or12
+  D0_GATE IO_AS00 MNTYMXDLY={MNTYMXDLY} IO_LEVEL={IO_LEVEL}

U3 DFF(6) 20 10
+  $D_HI $D_HI 1
+  or18 or17 or16 or15 or14 or13
+  q18 q17 q16 q15 q14 q13
+  qb18 qb17 qb16 qb15 qb14 qb13
+  D16R6B2FF IO_AS00 MNTYMXDLY={MNTYMXDLY} IO_LEVEL={IO_LEVEL}

U4 BUFA(6) 20 10
+  qb18 qb17 qb16 qb15 qb14 qb13
+  qb18b qb17b qb16b qb15b qb14b qb13b
+  D16R6B2BUF IO_AS00 MNTYMXDLY={MNTYMXDLY} IO_LEVEL={IO_LEVEL}

U5 INV3 20 10
+  or19 row00 19
+  D16R6B2T IO_AS00 MNTYMXDLY={MNTYMXDLY} IO_LEVEL={IO_LEVEL}

U6 INV3 20 10
+  or12 row1792 12
+  D16R6B2T IO_AS00 MNTYMXDLY={MNTYMXDLY} IO_LEVEL={IO_LEVEL}

U7 INV3A(6) 20 10
+  q18 q17 q16 q15 q14 q13
+  11bar
+  18 17 16 15 14 13
+  D16R6B2R IO_AS00 MNTYMXDLY={MNTYMXDLY} IO_LEVEL={IO_LEVEL}

U8 INV 20 10
+  11 11bar
+  D0_GATE IO_AS00 MNTYMXDLY={MNTYMXDLY} IO_LEVEL={IO_LEVEL}

.model D16R6B2FF ueff(twclklMN=10ns twclkhMN=15ns tsudclkMN=20ns
+		            twclklTY=8ns twclkhTY=10ns tsudclkTY=11ns)

.model D16R6B2BUF ugate(tplhTY=10ns tplhMX=15ns tphlTY=10ns tphlMX=15ns)

.model D16R6B2T utgate(tplhTY=15ns tplhMX=25ns tphlTY=15ns tphlMX=25ns
+		         tplzTY=13ns tplzMX=25ns tphzTY=13ns tphzMX=25ns
+		         tpzlTY=10ns tpzlMX=25ns tpzhTY=10ns tpzhMX=25ns)

.model D16R6B2R utgate(tplhTY=10ns tplhMX=15ns tphlTY=10ns tphlMX=15ns
+		         tplzTY=11ns tplzMX=20ns tphzTY=11ns tphzMX=20ns
+		         tpzlTY=15ns tpzlMX=20ns tpzhTY=15ns tpzhMX=20ns)

.ends PAL16R6B2
*
*
* ----------------------------------------------------------- PAL16R6D ------
*  20-Pin Medium PAL Family
*
*  Programmable Logic Devices Databook, 1989, National Pages 2-23 to 2-45
*  bss    12/1/95
*  This part is initialized with a start up clear on the registers.
*  To change this, go to the U9 gate and change the stim value at 0ns to 1.
*
.subckt PAL16R6D 1 2 3 4 5 6 7 8 9 11 12 13 14 15 16 17 18 19
+     optional:  20=$G_DPWR 10=$G_DGND
+     params:  MNTYMXDLY=0 IO_LEVEL=0
+     text: JEDFILE="PLD.JED"

U1 PLANDC(16,64) 20 10
+  2 19 3 qb18b 4 qb17b 5 qb16b 6 qb15b 7 qb14b 8 qb13b 9 12
+  row00 row32 row64 row96 row128 row160 row192 row224
+  row256 row288 row320 row352 row384 row416 row448 row480
+  row512 row544 row576 row608 row640 row672 row704 row736
+  row768 row800 row832 row864 row896 row928 row960 row992
+  row1024 row1056 row1088 row1120 row1152 row1184 row1216 row1248
+  row1280 row1312 row1344 row1376 row1408 row1440 row1472 row1504
+  row1536 row1568 row1600 row1632 row1664 row1696 row1728 row1760
+  row1792 row1824 row1856 row1888 row1920 row1952 row1984 row2016
+  D0_PLD IO_F MNTYMXDLY={MNTYMXDLY} IO_LEVEL={IO_LEVEL}
+  FILE=|JEDFILE|

U2 ORA(8,8) 20 10
+  $D_LO row32 row64 row96 row128 row160 row192 row224
+  row256 row288 row320 row352 row384 row416 row448 row480
+  row512 row544 row576 row608 row640 row672 row704 row736
+  row768 row800 row832 row864 row896 row928 row960 row992
+  row1024 row1056 row1088 row1120 row1152 row1184 row1216 row1248
+  row1280 row1312 row1344 row1376 row1408 row1440 row1472 row1504
+  row1536 row1568 row1600 row1632 row1664 row1696 row1728 row1760
+  $D_LO row1824 row1856 row1888 row1920 row1952 row1984 row2016
+  or19 or18 or17 or16 or15 or14 or13 or12
+  D0_GATE IO_F MNTYMXDLY={MNTYMXDLY} IO_LEVEL={IO_LEVEL}

U3 DFF(6) 20 10
+  $D_HI clr 1
+  or18 or17 or16 or15 or14 or13
+  q18 q17 q16 q15 q14 q13
+  qb18 qb17 qb16 qb15 qb14 qb13
+  D16R6DFF IO_F MNTYMXDLY={MNTYMXDLY} IO_LEVEL={IO_LEVEL}

U4 BUFA(6) 20 10
+  qb18 qb17 qb16 qb15 qb14 qb13
+  qb18b qb17b qb16b qb15b qb14b qb13b
+  D16R6DBUF IO_F MNTYMXDLY={MNTYMXDLY} IO_LEVEL={IO_LEVEL}

U5 INV3 20 10
+  or19 row00 19
+  D16R6DT IO_F MNTYMXDLY={MNTYMXDLY} IO_LEVEL={IO_LEVEL}

U6 INV3 20 10
+  or12 row1792 12
+  D16R6DT IO_F MNTYMXDLY={MNTYMXDLY} IO_LEVEL={IO_LEVEL}

U7 INV3A(6) 20 10
+  q18 q17 q16 q15 q14 q13
+  11bar
+  18 17 16 15 14 13
+  D16R6DR IO_F MNTYMXDLY={MNTYMXDLY} IO_LEVEL={IO_LEVEL}

U8 INV 20 10
+  11 11bar
+  D0_GATE IO_F MNTYMXDLY={MNTYMXDLY} IO_LEVEL={IO_LEVEL}

U9 STIM(1,1) 20 10 clr
+  IO_STM
+  0ns 0
+  1.5ns 1

.model D16R6DFF ueff(twclklMN=7ns twclkhMN=7ns tsudclkMN=10ns
+		            twclklTY=3.5ns twclkhTY=2ns tsudclkTY=5.5ns)

.model D16R6DBUF ugate(tplhTY=5.5ns tplhMX=8ns tphlTY=5.5ns tphlMX=8ns)

.model D16R6DT utgate(tplhTY=7.1ns tplhMX=10ns tphlTY=7.1ns tphlMX=10ns
+		         tplzTY=5ns tplzMX=10ns tphzTY=5ns tphzMX=10ns
+		         tpzlTY=7.2ns tpzlMX=10ns tpzhTY=7.2ns tpzhMX=10ns)

.model D16R6DR utgate(tplhTY=5.5ns tplhMX=8ns tphlTY=5.5ns tphlMX=8ns
+		         tplzTY=4ns tplzMX=10ns tphzTY=4ns tphzMX=10ns
+		         tpzlTY=5.5ns tpzlMX=10ns tpzhTY=5.5ns tpzhMX=10ns)

.ends PAL16R6D
*
*
* ----------------------------------------------------------- PAL20C1 ------
*  24-Pin Small PAL Family
*
*  Programmable Logic Devices Databook, 1989, National Pages 2-47 to 2-60
*  bss    12/1/95
*
.subckt PAL20C1 1 2 3 4 5 6 7 8 9 10 11 13 14 15 16 17 18 19 20 21 22 23
+     optional:  24=$G_DPWR 12=$G_DGND
+     params:  MNTYMXDLY=0 IO_LEVEL=0
+     text: JEDFILE="PLD.JED"

U1 PLANDC(20,16) 24 12
+  2 1 3 23 4 22 5 21 6 20 7 17 8 16 9 15 10 14 11 13
+  row0 row40 row80 row120 row160 row200 row240 row280
+  row320 row360 row400 row440 row480 row520 row560 row600
+  D0_PLD IO_S MNTYMXDLY={MNTYMXDLY} IO_LEVEL={IO_LEVEL}
+  FILE=|JEDFILE|

U2 ORA(8,2) 24 12
+  row0 row40 row80 row120 row160 row200 row240 row280
+  row320 row360 row400 row440 row480 row520 row560 row600
+  or1 or2
+  D0_GATE IO_S MNTYMXDLY={MNTYMXDLY} IO_LEVEL={IO_LEVEL}

U3 OR(2) 24 12
+  or1 or2 19
+  D20C1 IO_S MNTYMXDLY={MNTYMXDLY} IO_LEVEL={IO_LEVEL}

U4 NOR(2) 24 12
+  or1 or2 18
+  D20C1 IO_S MNTYMXDLY={MNTYMXDLY} IO_LEVEL={IO_LEVEL}

.model D20C1 ugate(tplhTY=25ns tplhMX=40ns tphlTY=25ns tphlMX=40ns)

.ends PAL20C1
*
*
* ----------------------------------------------------------- PAL20C1A ------
*  24-Pin Small PAL Family
*
*  Programmable Logic Devices Databook, 1989, National Pages 2-47 to 2-60
*  bss    12/1/95
*
.subckt PAL20C1A 1 2 3 4 5 6 7 8 9 10 11 13 14 15 16 17 18 19 20 21 22 23
+     optional:  24=$G_DPWR 12=$G_DGND
+     params:  MNTYMXDLY=0 IO_LEVEL=0
+     text: JEDFILE="PLD.JED"

U1 PLANDC(20,16) 24 12
+  2 1 3 23 4 22 5 21 6 20 7 17 8 16 9 15 10 14 11 13
+  row0 row40 row80 row120 row160 row200 row240 row280
+  row320 row360 row400 row440 row480 row520 row560 row600
+  D0_PLD IO_S MNTYMXDLY={MNTYMXDLY} IO_LEVEL={IO_LEVEL}
+  FILE=|JEDFILE|

U2 ORA(8,2) 24 12
+  row0 row40 row80 row120 row160 row200 row240 row280
+  row320 row360 row400 row440 row480 row520 row560 row600
+  or1 or2
+  D0_GATE IO_S MNTYMXDLY={MNTYMXDLY} IO_LEVEL={IO_LEVEL}

U3 OR(2) 24 12
+  or1 or2 19
+  D20C1A IO_S MNTYMXDLY={MNTYMXDLY} IO_LEVEL={IO_LEVEL}

U4 NOR(2) 24 12
+  or1 or2 18
+  D20C1A IO_S MNTYMXDLY={MNTYMXDLY} IO_LEVEL={IO_LEVEL}

.model D20C1A ugate(tplhMX=30ns tphlMX=30ns)

.ends PAL20C1A
*
*
* ----------------------------------------------------------- PAL20L2 ------
*  24-Pin Small PAL Family
*
*  Programmable Logic Devices Databook, 1989, National Pages 2-47 to 2-60
*  bss    12/1/95
*
.subckt PAL20L2 1 2 3 4 5 6 7 8 9 10 11 13 14 15 16 17 18 19 20 21 22 23
+     optional:  24=$G_DPWR 12=$G_DGND
+     params:  MNTYMXDLY=0 IO_LEVEL=0
+     text: JEDFILE="PLD.JED"

U1 PLANDC(20,16) 24 12
+  2 1 3 23 4 22 5 21 6 20 7 17 8 16 9 15 10 14 11 13
+  row0 row40 row80 row120 row160 row200 row240 row280
+  row320 row360 row400 row440 row480 row520 row560 row600
+  D0_PLD IO_S MNTYMXDLY={MNTYMXDLY} IO_LEVEL={IO_LEVEL}
+  FILE=|JEDFILE|

U2 NORA(8,2) 24 12
+  row0 row40 row80 row120 row160 row200 row240 row280
+  row320 row360 row400 row440 row480 row520 row560 row600
+  19 18
+  D20L2 IO_S MNTYMXDLY={MNTYMXDLY} IO_LEVEL={IO_LEVEL}

.model D20L2 ugate(tplhTY=25ns tplhMX=40ns tphlTY=25ns tphlMX=40ns)

.ends PAL20L2
*
*
* ----------------------------------------------------------- PAL20L2A ------
*  24-Pin Small PAL Family
*
*  Programmable Logic Devices Databook, 1989, National Pages 2-47 to 2-60
*  bss    12/1/95
*
.subckt PAL20L2A 1 2 3 4 5 6 7 8 9 10 11 13 14 15 16 17 18 19 20 21 22 23
+     optional:  24=$G_DPWR 12=$G_DGND
+     params:  MNTYMXDLY=0 IO_LEVEL=0
+     text: JEDFILE="PLD.JED"

U1 PLANDC(20,16) 24 12
+  2 1 3 23 4 22 5 21 6 20 7 17 8 16 9 15 10 14 11 13
+  row0 row40 row80 row120 row160 row200 row240 row280
+  row320 row360 row400 row440 row480 row520 row560 row600
+  D0_PLD IO_S MNTYMXDLY={MNTYMXDLY} IO_LEVEL={IO_LEVEL}
+  FILE=|JEDFILE|

U2 NORA(8,2) 24 12
+  row0 row40 row80 row120 row160 row200 row240 row280
+  row320 row360 row400 row440 row480 row520 row560 row600
+  19 18
+  D20L2A IO_S MNTYMXDLY={MNTYMXDLY} IO_LEVEL={IO_LEVEL}

.model D20L2A ugate(tplhTY=15ns tplhMX=25ns tphlTY=15ns tphlMX=25ns)

.ends PAL20L2A
*
*
* ----------------------------------------------------------- PAL20X8 ------
*  24-Pin Exclusive-OR PAL Family
*
*  Programmable Logic Devices Databook, 1989, National Pages 2-61 to 2-75
*  bss    12/4/95
*
.subckt PAL20X8 1 2 3 4 5 6 7 8 9 10 11 13 14 15 16 17 18 19 20 21 22 23
+     optional:  24=$G_DPWR 12=$G_DGND
+     params:  MNTYMXDLY=0 IO_LEVEL=0
+     text: JEDFILE="PLD.JED"

U1 PLANDC(20,40) 24 12
+  2 23 3 qb22b 4 qb21b 5 qb20b 6 qb19b 7 qb18b 8 qb17b
+  9 qb16b 10 qb15b 11 14
+  row00 row40 row80 row120 row160 row200 row240 row280
+  row320 row360 row400 row440 row480 row520 row560 row600
+  row640 row680 row720 row760 row800 row840 row880 row920
+  row960 row1000 row1040 row1080 row1120 row1160 row1200 row1240
+  row1280 row1320 row1360 row1400 row1440 row1480 row1520 row1560
+  D0_PLD IO_AS00 MNTYMXDLY={MNTYMXDLY} IO_LEVEL={IO_LEVEL}
+  FILE=|JEDFILE|

U2 ORA(2,16) 24 12
+  row160 row200 row240 row280 row320 row360 row400 row440
+  row480 row520 row560 row600 row640 row680 row720 row760
+  row800 row840 row880 row920 row960 row1000 row1040 row1080
+  row1120 row1160 row1200 row1240 row1280 row1320 row1360 row1400
+  or22a or22b or21a or21b or20a or20b or19a or19b or18a or18b
+  or17a or17b or16a or16b or15a or15b
+  D0_GATE IO_AS00 MNTYMXDLY={MNTYMXDLY} IO_LEVEL={IO_LEVEL}

U3 ORA(3,2) 24 12
+  row40 row80 row120 row1480 row1520 row1560
+  out23 out14
+  D0_GATE IO_AS00 MNTYMXDLY={MNTYMXDLY} IO_LEVEL={IO_LEVEL}

U4 XORA(8) 24 12
+  or22a or22b or21a or21b or20a or20b or19a or19b or18a or18b
+  or17a or17b or16a or16b or15a or15b
+  d22 d21 d20 d19 d18 d17 d16 d15
+  D0_GATE IO_AS00 MNTYMXDLY={MNTYMXDLY} IO_LEVEL={IO_LEVEL}

U5 INV 24 12
+  13 enab13
+  D0_GATE IO_AS00 MNTYMXDLY={MNTYMXDLY} IO_LEVEL={IO_LEVEL}

U6 INV3 24 12
+  out23 row00 23
+  D20X8T IO_AS00 MNTYMXDLY={MNTYMXDLY} IO_LEVEL={IO_LEVEL}

U7 INV3 24 12
+  out14 row1440 14
+  D20X8T IO_AS00 MNTYMXDLY={MNTYMXDLY} IO_LEVEL={IO_LEVEL}

U8 DFF(8) 24 12
+  $D_HI $D_HI 1
+  d22 d21 d20 d19 d18 d17 d16 d15
+  q22 q21 q20 q19 q18 q17 q16 q15
+  qb22 qb21 qb20 qb19 qb18 qb17 qb16 qb15
+  D20X8FF IO_AS00 MNTYMXDLY={MNTYMXDLY} IO_LEVEL={IO_LEVEL}

U9 BUFA(8) 24 12
+  qb22 qb21 qb20 qb19 qb18 qb17 qb16 qb15
+  qb22b qb21b qb20b qb19b qb18b qb17b qb16b qb15b
+  D20X8BUF IO_AS00 MNTYMXDLY={MNTYMXDLY} IO_LEVEL={IO_LEVEL}

U10 INV3A(8) 24 12
+  q22 q21 q20 q19 q18 q17 q16 q15
+  enab13
+  22 21 20 19 18 17 16 15
+  D20X8R IO_AS00 MNTYMXDLY={MNTYMXDLY} IO_LEVEL={IO_LEVEL}

.model D20X8T UTGATE(tplhTY=35ns tplhMX=50ns tphlTY=35ns tphlMX=50ns
+			tpzlTY=35ns tpzlMX=45ns tpzhTY=35ns tpzhMX=45ns
+			tplzTY=35ns tplzMX=45ns tphzTY=35ns tphzMX=45ns)

.model D20X8FF ueff(twclklMN=35ns twclkhMN=25ns tsudclkMN=50ns
+		            twclklTY=20ns twclkhTY=10ns tsudclkTY=38ns)

.model D20X8BUF ugate(tplhTY=20ns tplhMX=30ns tphlTY=20ns tphlMX=30ns)

.model D20X8R utgate(tplhTY=20ns tplhMX=30ns tphlTY=20ns tphlMX=30ns
+		         tplzTY=20ns tplzMX=35ns tphzTY=20ns tphzMX=35ns
+		         tpzlTY=20ns tpzlMX=35ns tpzhTY=20ns tpzhMX=35ns)

.ends PAL20X8
*
*
* ----------------------------------------------------------- PAL20X8A ------
*  24-Pin Exclusive-OR PAL Family
*
*  Programmable Logic Devices Databook, 1989, National Pages 2-61 to 2-75
*  bss    12/5/95
*
.subckt PAL20X8A 1 2 3 4 5 6 7 8 9 10 11 13 14 15 16 17 18 19 20 21 22 23
+     optional:  24=$G_DPWR 12=$G_DGND
+     params:  MNTYMXDLY=0 IO_LEVEL=0
+     text: JEDFILE="PLD.JED"

U1 PLANDC(20,40) 24 12
+  2 23 3 qb22b 4 qb21b 5 qb20b 6 qb19b 7 qb18b 8 qb17b
+  9 qb16b 10 qb15b 11 14
+  row00 row40 row80 row120 row160 row200 row240 row280
+  row320 row360 row400 row440 row480 row520 row560 row600