**********
* Copyright Intusoft 1988-1997
* All Rights Reserved
**********
**********
*SRC=1N3491;DN3491;Diodes;Rectifier >5A;50V 25A
.MODEL DN3491 D (IS=4.12E-10 N=1.24 BV=6.66E+01 IBV=1.00E-03
+ RS=4.31E-03 CJO=9.28E-10 VJ=.29 M=0.55 TT=3.08E-06)
* Motorola  50 Volt  25.00 Amp   5.50 us  Si Rectifier   Diode  06-25-1990
**********
*SRC=1N3492;DN3492;Diodes;Rectifier >5A;100V 25A
.MODEL DN3492 D (IS=4.12E-10 N=1.24 BV=1.33E+02 IBV=1.00E-03
+ RS=4.31E-03 CJO=9.28E-10 VJ=.29 M=0.55 TT=3.08E-06)
* Motorola  100 Volt  25.00 Amp   5.50 us  Si Rectifier   Diode  06-25-1990
**********
*SRC=1N3493;DN3493;Diodes;Rectifier >5A;200V 25A
.MODEL DN3493 D (IS=4.12E-10 N=1.24 BV=2.66E+02 IBV=1.00E-03
+ RS=4.31E-03 CJO=9.28E-10 VJ=.29 M=0.55 TT=3.08E-06)
* Motorola  200 Volt  25.00 Amp   5.50 us  Si Rectifier   Diode  06-25-1990
**********
*SRC=1N3494;DN3494;Diodes;Rectifier >5A;300V 25A
.MODEL DN3494 D (IS=4.12E-10 N=1.24 BV=4.00E+02 IBV=1.00E-03
+ RS=4.31E-03 CJO=9.28E-10 VJ=.29 M=0.55 TT=3.08E-06)
* Motorola  300 Volt  25.00 Amp   5.50 us  Si Rectifier   Diode  06-25-1990
**********
*SRC=1N3495;DN3495;Diodes;Rectifier >5A;400V 25A
.MODEL DN3495 D (IS=4.12E-10 N=1.24 BV=5.33E+02 IBV=1.00E-03
+ RS=4.31E-03 CJO=9.28E-10 VJ=.29 M=0.55 TT=3.08E-06)
* Motorola  400 Volt  25.00 Amp   5.50 us  Si Rectifier   Diode  06-25-1990
**********
*SRC=1N3879;DN3879;Diodes;Rectifier >5A;50V 6A
.MODEL DN3879 D (IS=2.01E-11 N=1.70 BV=6.66E+01 IBV=1.00E-05
+ RS=1.24E-02 CJO=1.19E-10 VJ=.75 M=.26 TT=1.44E-07)
* Motorola 50 Volt   6.00 Amp   0.10 us  Si Rectifier   Diode  06-27-1990
**********
*SRC=1N3880;DN3880;Diodes;Rectifier >5A;100V 6A
.MODEL DN3880 D (IS=2.01E-11 N=1.70 BV=1.33E+02 IBV=1.00E-05
+ RS=1.24E-02 CJO=1.19E-10 VJ=.75 M=.26 TT=1.44E-07)
* Motorola  100 Volt   6.00 Amp   0.10 us  Si Rectifier   Diode  06-27-1990
**********
*SRC=1N3881;DN3881;Diodes;Rectifier >5A;200V 6A
.MODEL DN3881 D (IS=2.01E-11 N=1.70 BV=2.66E+02 IBV=1.00E-05
+ RS=1.24E-02 CJO=1.19E-10 VJ=.75 M=.26 TT=1.44E-07)
* Motorola  200 Volt   6.00 Amp   0.10 us  Si Rectifier   Diode  06-27-1990
**********
*SRC=1N3882;DN3882;Diodes;Rectifier >5A;300V 6A
.MODEL DN3882 D (IS=2.01E-11 N=1.70 BV=4.00E+02 IBV=1.00E-05
+ RS=1.24E-02 CJO=1.19E-10 VJ=.75 M=.26 TT=1.44E-07)
* Motorola  300 Volt   6.00 Amp   0.10 us  Si Rectifier   Diode  06-27-1990
**********
*SRC=1N3883;DN3883;Diodes;Rectifier >5A;400V 6A
.MODEL DN3883 D (IS=2.01E-11 N=1.70 BV=5.33E+02 IBV=1.00E-05
+ RS=1.24E-02 CJO=1.19E-10 VJ=.75 M=.26 TT=1.44E-07)
* Motorola  400 Volt   6.00 Amp   0.10 us  Si Rectifier   Diode  06-27-1990
**********
*SRC=MR1366;MR1366;Diodes;Rectifier >5A;600V 6A
.MODEL MR1366 D (IS=2.01E-11 N=1.70 BV=8.00E+02 IBV=1.00E-05
+ RS=1.24E-02 CJO=1.19E-10 VJ=.75 M=.26 TT=1.44E-07)
* Motorola  600 Volt   6.00 Amp   0.10 us  Si Rectifier   Diode  06-27-1990
**********
*SRC=1N3889;DN3889;Diodes;Rectifier >5A;50V 12A
.MODEL DN3889 D (IS=9.06E-08 N=1.97 BV=6.66E+01 IBV=1.00E-05
+ RS=9.25E-03 CJO=1.19E-10 VJ=.75 M=.26 TT=1.44E-07)
* Motorola  50 Volt  12.00 Amp   0.10 us  Si Rectifier   Diode  06-27-1990
**********
*SRC=1N3890;DN3890;Diodes;Rectifier >5A;100V 12A
.MODEL DN3890 D (IS=9.06E-08 N=1.97 BV=1.33E+02 IBV=1.00E-05
+ RS=9.25E-03 CJO=1.19E-10 VJ=.75 M=.26 TT=1.44E-07)
* Motorola  100 Volt  12.00 Amp   0.10 us  Si Rectifier   Diode  06-27-1990
**********
*SRC=1N3891;DN3891;Diodes;Rectifier >5A;200V 12A
.MODEL DN3891 D (IS=9.06E-08 N=1.97 BV=2.66E+02 IBV=1.00E-05
+ RS=9.25E-03 CJO=1.19E-10 VJ=.75 M=.26 TT=1.44E-07)
* Motorola  200 Volt  12.00 Amp   0.10 us  Si Rectifier   Diode  06-27-1990
**********
*SRC=1N3892;DN3892;Diodes;Rectifier >5A;300V 12A
.MODEL DN3892 D (IS=9.06E-08 N=1.97 BV=4.00E+02 IBV=1.00E-05
+ RS=9.25E-03 CJO=1.19E-10 VJ=.75 M=.26 TT=1.44E-07)
* Motorola  300 Volt  12.00 Amp   0.10 us  Si Rectifier   Diode  06-27-1990
**********
*SRC=1N3893;DN3893;Diodes;Rectifier >5A;400V 12A
.MODEL DN3893 D (IS=9.06E-08 N=1.97 BV=5.33E+02 IBV=1.00E-05
+ RS=9.25E-03 CJO=1.19E-10 VJ=.75 M=.26 TT=1.44E-07)
* Motorola  400 Volt  12.00 Amp   0.10 us  Si Rectifier   Diode  06-27-1990
**********
*SRC=MR1376;MR1376;Diodes;Rectifier >5A;600V 12A
.MODEL MR1376 D (IS=9.06E-08 N=1.97 BV=8.00E+02 IBV=1.00E-05
+ RS=9.25E-03 CJO=1.19E-10 VJ=.75 M=.26 TT=1.44E-07)
* Motorola  600 Volt  12.00 Amp   0.10 us  Si Rectifier   Diode  06-27-1990
**********
*SRC=1N3899;DN3899;Diodes;Rectifier >5A;50V 20A
.MODEL DN3899 D (IS=3.29E-08 N=1.97 BV=6.66E+01 IBV=1.00E-05
+ RS=4.60E-03 CJO=1.66E-10 VJ=.25 M=.2 TT=1.44E-07)
* Motorola  50 Volt  20.00 Amp   0.10 us  Si Rectifier   Diode  06-27-1990
**********
*SRC=1N3900;DN3900;Diodes;Rectifier >5A;100V 20A
.MODEL DN3900 D (IS=3.29E-08 N=1.97 BV=1.33E+02 IBV=1.00E-05
+ RS=4.60E-03 CJO=1.66E-10 VJ=.25 M=.2 TT=1.44E-07)
* Motorola  100 Volt  20.00 Amp   0.10 us  Si Rectifier   Diode  06-27-1990
**********
*SRC=1N3901;DN3901;Diodes;Rectifier >5A;200V 20A
.MODEL DN3901 D (IS=3.29E-08 N=1.97 BV=2.66E+02 IBV=1.00E-05
+ RS=4.60E-03 CJO=1.66E-10 VJ=.25 M=.2 TT=1.44E-07)
* Motorola  200 Volt  20.00 Amp   0.10 us  Si Rectifier   Diode  06-27-1990
**********
*SRC=1N3902;DN3902;Diodes;Rectifier >5A;300V 20A
.MODEL DN3902 D (IS=3.29E-08 N=1.97 BV=4.00E+02 IBV=1.00E-05
+ RS=4.60E-03 CJO=1.66E-10 VJ=.25 M=.2 TT=1.44E-07)
* Motorola  300 Volt  20.00 Amp   0.10 us  Si Rectifier   Diode  06-27-1990
**********
*SRC=1N3903;DN3903;Diodes;Rectifier >5A;400V 20A
.MODEL DN3903 D (IS=3.29E-08 N=1.97 BV=5.33E+02 IBV=1.00E-05
+ RS=4.60E-03 CJO=1.66E-10 VJ=.25 M=.2 TT=1.44E-07)
* Motorola  400 Volt  20.00 Amp   0.10 us  Si Rectifier   Diode  06-27-1990
**********
*SRC=MR1386;MR1386;Diodes;Rectifier >5A;600V 20A
.MODEL MR1386 D (IS=3.29E-09 N=1.70 BV=8.00E+02 IBV=1.00E-05
+ RS=4.60E-03 CJO=1.66E-10 VJ=.25 M=.2 TT=1.44E-07)
* Motorola  600 Volt  20.00 Amp   0.10 us  Si Rectifier   Diode  06-27-1990
**********
*SRC=1N3909;DN3909;Diodes;Rectifier >5A;50V 30A
.MODEL DN3909 D (IS=5.17E-09 N=1.61 BV=6.66E+01 IBV=1.00E-05
+ RS=3.77E-03 CJO=1.19E-10 VJ=.75 M=.26 TT=1.44E-07)
* Motorola  50 Volt  30.00 Amp   0.10 us  Si Rectifier   Diode  06-27-1990
**********
*SRC=1N3910;DN3910;Diodes;Rectifier >5A;100V 30A
.MODEL DN3910 D (IS=5.17E-09 N=1.61 BV=1.33E+02 IBV=1.00E-05
+ RS=3.77E-03 CJO=1.19E-10 VJ=.75 M=.26 TT=1.44E-07)
* Motorola  100 Volt  30.00 Amp   0.10 us  Si Rectifier   Diode  06-27-1990
**********
*SRC=1N3911;DN3911;Diodes;Rectifier >5A;200V 30A
.MODEL DN3911 D (IS=5.17E-09 N=1.61 BV=2.66E+02 IBV=1.00E-05
+ RS=3.77E-03 CJO=1.19E-10 VJ=.75 M=.26 TT=1.44E-07)
* Motorola  200 Volt  30.00 Amp   0.10 us  Si Rectifier   Diode  06-27-1990
**********
*SRC=1N3912;DN3912;Diodes;Rectifier >5A;300V 30A
.MODEL DN3912 D (IS=5.17E-09 N=1.61 BV=4.00E+02 IBV=1.00E-05
+ RS=3.77E-03 CJO=1.19E-10 VJ=.75 M=.26 TT=1.44E-07)
* Motorola  300 Volt  30.00 Amp   0.10 us  Si Rectifier   Diode  06-27-1990
**********
*SRC=1N3913;DN3913;Diodes;Rectifier >5A;400V 30A
.MODEL DN3913 D (IS=5.17E-09 N=1.61 BV=5.33E+02 IBV=1.00E-05
+ RS=3.77E-03 CJO=1.19E-10 VJ=.75 M=.26 TT=1.44E-07)
* Motorola  400 Volt  30.00 Amp   0.10 us  Si Rectifier   Diode  06-27-1990
**********
*SRC=MR1396;MR1396;Diodes;Rectifier >5A;600V 30A
.MODEL MR1396 D (IS=5.17E-09 N=1.70 BV=8.00E+02 IBV=1.00E-05
+ RS=3.77E-03 CJO=1.19E-10 VJ=.75 M=.26 TT=1.44E-07)
* Motorola  600 Volt  30.00 Amp   0.10 us  Si Rectifier   Diode  06-27-1990
**********
*SRC=1N4933;DN4933;Diodes;Rectifier <=5A;50V 1A
.MODEL DN4933 D (IS=2.06E-08 N=2.00 BV=6.66E+01 IBV=1.00E-06
+ RS=2.26E-02 CJO=2.39E-11 VJ=.75 M=.41 TT=2.16E-07)
* Motorola  50 Volt   1.00 Amp   0.15 us  Si Rectifier   Diode  06-28-1990
**********
*SRC=1N4934;DN4934;Diodes;Rectifier <=5A;100V 1A
.MODEL DN4934 D (IS=2.06E-08 N=2.00 BV=1.33E+02 IBV=1.00E-06
+ RS=2.26E-02 CJO=2.39E-11 VJ=.75 M=.41 TT=2.16E-07)
* Motorola  100 Volt   1.00 Amp   0.15 us  Si Rectifier   Diode  06-28-1990
**********
*SRC=1N4935;DN4935;Diodes;Rectifier <=5A;200V 1A
.MODEL DN4935 D (IS=2.06E-08 N=2.00 BV=2.66E+02 IBV=1.00E-06
+ RS=2.26E-02 CJO=2.39E-11 VJ=.75 M=.41 TT=2.16E-07)
* Motorola  200 Volt   1.00 Amp   0.15 us  Si Rectifier   Diode  06-28-1990
**********
*SRC=1N4936;DN4936;Diodes;Rectifier <=5A;400V 1A
.MODEL DN4936 D (IS=2.06E-08 N=2.00 BV=5.33E+02 IBV=1.00E-06
+ RS=2.26E-02 CJO=2.39E-11 VJ=.75 M=.41 TT=2.16E-07)
* Motorola  400 Volt   1.00 Amp   0.15 us  Si Rectifier   Diode  06-28-1990
**********
*SRC=1N4937;DN4937;Diodes;Rectifier <=5A;600V 1A
.MODEL DN4937 D (IS=2.06E-08 N=2.00 BV=8.00E+02 IBV=1.00E-06
+ RS=2.26E-02 CJO=2.39E-11 VJ=.75 M=.41 TT=2.16E-07)
* Motorola  600 Volt   1.00 Amp   0.15 us  Si Rectifier   Diode  06-28-1990
**********
*SRC=1N5391;DN5391;Diodes;Rectifier <=5A;50V 1.5A
.MODEL DN5391 D (IS=2.26E-09 N=1.59 BV=6.66E+01 IBV=1.00E-06
+ RS=4.49E-02 CJO=5.21E-11 VJ=.25 M=.4 TT=2.94E-06)
* Motorola  50 Volt   1.50 Amp   3.50 us  Si Rectifier   Diode  06-28-1990
**********
*SRC=1N5392;DN5392;Diodes;Rectifier <=5A;100V 1.5A
.MODEL DN5392 D (IS=2.24E-09 N=1.59 BV=1.33E+02 IBV=1.00E-06
+ RS=4.30E-02 CJO=5.21E-11 VJ=.25 M=.4 TT=2.94E-06)
* Motorola  100 Volt   1.50 Amp   3.50 us  Si Rectifier   Diode  06-28-1990
**********
*SRC=1N5393;DN5393;Diodes;Rectifier <=5A;200V 1.5A
.MODEL DN5393 D (IS=2.24E-09 N=1.59 BV=2.66E+02 IBV=1.00E-06
+ RS=4.30E-02 CJO=5.21E-11 VJ=.25 M=.4 TT=2.94E-06)
* Motorola  200 Volt   1.50 Amp   3.50 us  Si Rectifier   Diode  06-28-1990
**********
*SRC=1N5395;DN5395;Diodes;Rectifier <=5A;400V 1.5A
.MODEL DN5395 D (IS=2.24E-09 N=1.59 BV=5.33E+02 IBV=1.00E-06
+ RS=4.30E-02 CJO=5.21E-11 VJ=.25 M=.4 TT=2.94E-06)
* Motorola  400 Volt   1.50 Amp   3.50 us  Si Rectifier   Diode  06-28-1990
**********
*SRC=1N5397;DN5397;Diodes;Rectifier <=5A;600V 1.5A
.MODEL DN5397 D (IS=2.24E-09 N=1.59 BV=8.00E+02 IBV=1.00E-06
+ RS=4.30E-02 CJO=5.21E-11 VJ=.25 M=.4 TT=2.94E-06)
* Motorola  600 Volt   1.50 Amp   3.50 us  Si Rectifier   Diode  06-28-1990
**********
*SRC=1N5398;DN5398;Diodes;Rectifier <=5A;800V 1.5A
.MODEL DN5398 D (IS=2.24E-09 N=1.59 BV=1.07E+03 IBV=1.00E-06
+ RS=4.30E-02 CJO=3.65E-11 VJ=.2 M=.3 TT=4.20E-06)
* Motorola  800 Volt   1.50 Amp   5.00 us  Si Rectifier   Diode  06-28-1990
**********
*SRC=1N5399;DN5399;Diodes;Rectifier <=5A;1000V 1.5A
.MODEL DN5399 D (IS=2.24E-09 N=1.59 BV=1.33E+03 IBV=1.00E-06
+ RS=4.30E-02 CJO=3.65E-11 VJ=.2 M=.3 TT=4.20E-06)
* Motorola  1000 Volt   1.50 Amp   5.00 us  Si Rectifier   Diode  06-28-1990
**********
*SRC=1N4001;DN4001;Diodes;Rectifier <=5A;50V 1A
.MODEL DN4001 D (IS=5.86E-07 N=1.70 BV=6.66E+01 IBV=5.00E-07
+ RS=3.62E-02 CJO=5.21E-11 VJ=.34 M=.38 TT=5.04E-06)
* Motorola  50 Volt   1.00 Amp   3.50 us  Si Rectifier   Diode  07-01-1990
**********
*SRC=1N4002;DN4002;Diodes;Rectifier <=5A;100V 1A
.MODEL DN4002 D (IS=5.86E-06 N=1.70 BV=1.33E+02 IBV=5.00E-07
+ RS=3.62E-02 CJO=5.21E-11 VJ=.34 M=.38 TT=5.04E-06)
* Motorola  100 Volt   1.00 Amp   3.50 us  Si Rectifier   Diode  07-01-1990
**********
*SRC=1N4003;DN4003;Diodes;Rectifier <=5A;200V 1A
.MODEL DN4003 D (IS=5.86E-06 N=1.70 BV=2.66E+02 IBV=5.00E-07
+ RS=4.22E-02 CJO=5.21E-11 VJ=.34 M=.38 TT=5.04E-06)
* Motorola  200 Volt   1.00 Amp   3.50 us  Si Rectifier   Diode  07-01-1990
**********
*SRC=1N4004;DN4004;Diodes;Rectifier <=5A;400V 1A
.MODEL DN4004 D (IS=5.86E-06 N=1.70 BV=5.33E+02 IBV=5.00E-07
+ RS=4.22E-02 CJO=5.21E-11 VJ=.34 M=.38 TT=5.04E-06)
* Motorola  400 Volt   1.00 Amp   3.50 us  Si Rectifier   Diode  07-01-1990
**********
*SRC=1N4005;DN4005;Diodes;Rectifier <=5A;600V 1A
.MODEL DN4005 D (IS=5.86E-06 N=1.70 BV=8.00E+02 IBV=5.00E-07
+ RS=4.22E-02 CJO=5.21E-11 VJ=.34 M=.38 TT=5.04E-06)
* Motorola  600 Volt   1.00 Amp   3.50 us  Si Rectifier   Diode  07-01-1990
**********
*SRC=1N4006;DN4006;Diodes;Rectifier <=5A;800V 1A
.MODEL DN4006 D (IS=5.86E-06 N=1.70 BV=1.07E+03 IBV=5.00E-07
+ RS=4.22E-02 CJO=3.65E-11 VJ=.2 M=.333 TT=7.20E-06)
* Motorola  800 Volt   1.00 Amp   5.00 us  Si Rectifier   Diode  07-01-1990
**********
*SRC=1N4007;DN4007;Diodes;Rectifier <=5A;1000V 1A
.MODEL DN4007 D (IS=5.86E-06 N=1.70 BV=1.33E+03 IBV=5.00E-07
+ RS=4.22E-02 CJO=3.65E-11 VJ=.2 M=.333 TT=7.20E-06)
* Motorola  1000 Volt   1.00 Amp   5.00 us  Si Rectifier   Diode  07-01-1990
**********
*SRC=MR500;MR500;Diodes;Rectifier <=5A;50V 3A
.MODEL MR500 D (IS=4.09E-10 N=1.41 BV=6.66E+01 IBV=1.00E-07
+ RS=8.08E-03 CJO=7.30E-11 VJ=.36 M=.41 TT=5.76E-06)
* Motorola  50 Volt   3.00 Amp   5.00 us  Si Rectifier   Diode  07-01-1990
**********
*SRC=MR501;MR501;Diodes;Rectifier <=5A;100V 3A
.MODEL MR501 D (IS=4.09E-10 N=1.41 BV=1.33E+02 IBV=1.00E-07
+ RS=8.08E-03 CJO=7.30E-11 VJ=.36 M=.41 TT=5.76E-06)
* Motorola  100 Volt   3.00 Amp   5.00 us  Si Rectifier   Diode  07-01-1990
**********
*SRC=MR502;MR502;Diodes;Rectifier <=5A;200V 3A
.MODEL MR502 D (IS=4.09E-10 N=1.41 BV=2.66E+02 IBV=1.00E-07
+ RS=8.08E-03 CJO=7.30E-11 VJ=.36 M=.41 TT=5.76E-06)
* Motorola  200 Volt   3.00 Amp   5.00 us  Si Rectifier   Diode  07-01-1990
**********
*SRC=MR504;MR504;Diodes;Rectifier <=5A;400V 3A
.MODEL MR504 D (IS=4.09E-10 N=1.41 BV=5.33E+02 IBV=1.00E-07
+ RS=8.08E-03 CJO=7.30E-11 VJ=.36 M=.41 TT=5.76E-06)
* Motorola  400 Volt   3.00 Amp   5.00 us  Si Rectifier   Diode  07-01-1990
**********
*SRC=MR506;MR506;Diodes;Rectifier <=5A;600V 3A
.MODEL MR506 D (IS=4.09E-10 N=1.41 BV=8.00E+02 IBV=1.00E-07
+ RS=8.08E-03 CJO=7.30E-11 VJ=.36 M=.41 TT=5.76E-06)
* Motorola  600 Volt   3.00 Amp   5.00 us  Si Rectifier   Diode  07-01-1990
**********
*SRC=MR508;MR508;Diodes;Rectifier <=5A;800V 3A
.MODEL MR508 D (IS=4.09E-10 N=1.41 BV=1.07E+03 IBV=1.00E-07
+ RS=8.08E-03 CJO=7.30E-11 VJ=.36 M=.41 TT=5.76E-06)
* Motorola  800 Volt   3.00 Amp   5.00 us  Si Rectifier   Diode  07-01-1990
**********
*SRC=MR510;MR510;Diodes;Rectifier <=5A;1000V 3A
.MODEL MR510 D (IS=4.09E-10 N=1.41 BV=1.33E+03 IBV=1.00E-07
+ RS=8.08E-03 CJO=7.30E-11 VJ=.36 M=.41 TT=5.76E-06)
* Motorola  1000 Volt   3.00 Amp   5.00 us  Si Rectifier   Diode  07-01-1990
**********
*SRC=MR750;MR750;Diodes;Rectifier >5A;50V 6A
.MODEL MR750 D (IS=3.60E-08 N=1.67 BV=6.66E+01 IBV=2.50E-05
+ RS=1.84E-03 CJO=9.28E-10 VJ=.29 M=.55 TT=6.91E-06)
* Motorola  50 Volt   6.00 Amp   5.50 us  Si Rectifier   Diode  07-01-1990
**********
*SRC=MR751;MR751;Diodes;Rectifier >5A;100V 6A
.MODEL MR751 D (IS=3.62E-08 N=1.67 BV=1.33E+02 IBV=2.50E-05
+ RS=1.84E-03 CJO=9.28E-10 VJ=.29 M=.55 TT=6.91E-06)
* Motorola  100 Volt   6.00 Amp   5.50 us  Si Rectifier   Diode  07-01-1990
**********
*SRC=MR752;MR752;Diodes;Rectifier >5A;200V 6A
.MODEL MR752 D (IS=3.62E-08 N=1.67 BV=2.66E+02 IBV=2.50E-05
+ RS=1.84E-03 CJO=9.28E-10 VJ=.29 M=.55 TT=6.91E-06)
* Motorola  200 Volt   6.00 Amp   5.50 us  Si Rectifier   Diode  07-01-1990
**********
*SRC=MR754;MR754;Diodes;Rectifier >5A;400V 6A
.MODEL MR754 D (IS=3.62E-08 N=1.67 BV=5.33E+02 IBV=2.50E-05
+ RS=1.84E-03 CJO=9.28E-10 VJ=.29 M=.55 TT=6.91E-06)
* Motorola  400 Volt   6.00 Amp   5.50 us  Si Rectifier   Diode  07-01-1990
**********
*SRC=MR756;MR756;Diodes;Rectifier >5A;600V 6A
.MODEL MR756 D (IS=3.62E-08 N=1.67 BV=8.00E+02 IBV=2.50E-05
+ RS=1.84E-03 CJO=9.28E-10 VJ=.29 M=.55 TT=6.91E-06)
* Motorola  600 Volt   6.00 Amp   5.50 us  Si Rectifier   Diode  07-01-1990
**********
*SRC=MR758;MR758;Diodes;Rectifier >5A;800V 6A
.MODEL MR758 D (IS=3.62E-08 N=1.67 BV=1.07E+03 IBV=2.50E-05
+ RS=1.84E-03 CJO=9.28E-10 VJ=.29 M=.55 TT=6.91E-06)
* Motorola  800 Volt   6.00 Amp   5.50 us  Si Rectifier   Diode  07-01-1990
**********
*SRC=MR760;MR760;Diodes;Rectifier >5A;1000V 6A
.MODEL MR760 D (IS=3.62E-08 N=1.67 BV=1.33E+03 IBV=2.50E-05
+ RS=1.84E-03 CJO=9.28E-10 VJ=.29 M=.55 TT=6.91E-06)
* Motorola  1000 Volt   6.00 Amp   5.50 us  Si Rectifier   Diode  07-01-1990
**********
*SRC=MR810;MR810;Diodes;Rectifier <=5A;50V 1A
.MODEL MR810 D (IS=1.36E-10 N=2.18 BV=6.66E+01 IBV=1.00E-06
+ RS=2.96E-02 CJO=2.39E-11 VJ=.75 M=.41 TT=5.04E-07)
* Motorola  50 Volt   1.00 Amp   0.35 us  Si Rectifier   Diode  07-01-1990
**********
*SRC=MR811;MR811;Diodes;Rectifier <=5A;100V 1A
.MODEL MR811 D (IS=5.95E-08 N=2.180 BV=1.33E+02 IBV=1.00E-06
+ RS=2.96E-02 CJO=2.39E-11 VJ=.75 M=.41 TT=5.04E-07)
* Motorola  100 Volt   1.00 Amp   0.35 us  Si Rectifier   Diode  07-01-1990
**********
*SRC=MR812;MR812;Diodes;Rectifier <=5A;200V 1A
.MODEL MR812 D (IS=5.95E-08 N=2.180 BV=2.66E+02 IBV=1.00E-06
+ RS=2.96E-02 CJO=2.39E-11 VJ=.75 M=.41 TT=5.04E-07)
* Motorola  200 Volt   1.00 Amp   0.35 us  Si Rectifier   Diode  07-01-1990
**********
*SRC=MR813;MR813;Diodes;Rectifier <=5A;300V 1A
.MODEL MR813 D (IS=5.95E-08 N=2.180 BV=4.00E+02 IBV=1.00E-06
+ RS=2.96E-02 CJO=2.39E-11 VJ=.75 M=.41 TT=5.04E-07)
* Motorola  300 Volt   1.00 Amp   0.35 us  Si Rectifier   Diode  07-01-1990
**********
*SRC=MR814;MR814;Diodes;Rectifier <=5A;400V 1A
.MODEL MR814 D (IS=5.95E-08 N=2.180 BV=5.33E+02 IBV=1.00E-06
+ RS=2.96E-02 CJO=2.39E-11 VJ=.75 M=.41 TT=5.04E-07)
* Motorola  400 Volt   1.00 Amp   0.35 us  Si Rectifier   Diode  07-01-1990
**********
*SRC=MR816;MR816;Diodes;Rectifier <=5A;600V 1A
.MODEL MR816 D (IS=5.95E-08 N=2.180 BV=8.00E+02 IBV=1.00E-06
+ RS=2.96E-02 CJO=2.39E-11 VJ=.75 M=.41 TT=5.04E-07)
* Motorola  600 Volt   1.00 Amp   0.35 us  Si Rectifier   Diode  07-01-1990
**********
*SRC=MR817;MR817;Diodes;Rectifier <=5A;800V 1A
.MODEL MR817 D (IS=5.95E-08 N=2.180 BV=1.07E+03 IBV=1.00E-06
+ RS=2.96E-02 CJO=2.39E-11 VJ=.75 M=.41 TT=5.04E-07)
* Motorola  800 Volt   1.00 Amp   0.35 us  Si Rectifier   Diode  07-01-1990
**********
*SRC=MR818;MR818;Diodes;Rectifier <=5A;1000V 1A
.MODEL MR818 D (IS=5.95E-08 N=2.180 BV=1.33E+03 IBV=1.00E-06
+ RS=2.96E-02 CJO=2.39E-11 VJ=.75 M=.41 TT=5.04E-07)
* Motorola  1000 Volt   1.00 Amp   0.35 us  Si Rectifier   Diode  07-01-1990
**********
*SRC=MUR805;MUR805;Diodes;Rectifier >5A;50V 8A
.MODEL MUR805 D (IS=1.47E-07 N=1.86 BV=6.66E+01 IBV=5.00E-06
+ RS=5.31E-03 CJO=2.65E-10 VJ=.75 M=.41 TT=5.04E-08)
* Motorola  50 Volt   8.00 Amp   0.04 us  Si Rectifier   Diode  07-01-1990
**********
*SRC=MUR810;MUR810;Diodes;Rectifier >5A;100V 8A
.MODEL MUR810 D (IS=1.47E-07 N=1.86 BV=1.33E+02 IBV=5.00E-06
+ RS=5.31E-03 CJO=2.65E-10 VJ=.75 M=.41 TT=5.04E-08)
* Motorola  100 Volt   8.00 Amp   0.04 us  Si Rectifier   Diode  07-01-1990
**********
*SRC=MUR815;MUR815;Diodes;Rectifier >5A;150V 8A
.MODEL MUR815 D (IS=1.47E-07 N=1.86 BV=2.00E+02 IBV=5.00E-06
+ RS=5.31E-03 CJO=2.65E-10 VJ=.75 M=.41 TT=5.04E-08)
* Motorola  150 Volt   8.00 Amp   0.04 us  Si Rectifier   Diode  07-01-1990
**********
*SRC=MUR820;MUR820;Diodes;Rectifier >5A;200V 8A
.MODEL MUR820 D (IS=307U RS=22M N=3.85 BV=200 IBV=10U
+ CJO=330P VJ=.75 M=.333 TT=79.2N)
* Motorola  200 Volt  8 Amp  55M us  Si Diode  02-24-1994
**********
*SRC=MUR830;MUR830;Diodes;Rectifier >5A;300V 8A
.MODEL MUR830 D (IS=354U RS=22M N=4.02 BV=300 IBV=10U
+ CJO=330P VJ=.75 M=.333 TT=79.2N)
* Motorola  300 Volt  8 Amp  55M us  Si Diode  02-24-1994
**********
*SRC=MUR840;MUR840;Diodes;Rectifier >5A;400V 8A
.MODEL MUR840 D (IS=664U RS=22M N=4.52 BV=400 IBV=10U
+ CJO=330P VJ=.75 M=.333 TT=79.2N)
* Motorola  400 Volt  8 Amp  55M us  Si Diode  02-24-1994
**********
*SRC=MUR850;MUR850;Diodes;Rectifier >5A;500V 8A
.MODEL MUR850 D (IS=783U RS=30M N=4.82 BV=500 IBV=10U
+ CJO=330P VJ=.75 M=.333 TT=79.2N)
* Motorola  500 Volt  8 Amp  55M us  Si Diode  02-24-1994
**********
*SRC=MUR860;MUR860;Diodes;Rectifier >5A;600V 8A
.MODEL MUR860 D (IS=783U RS=30M N=4.82 BV=600 IBV=10U
+ CJO=330P VJ=.75 M=.333 TT=79.2N)
* Motorola  600 Volt  8 Amp  55M us  Si Diode  02-24-1994
**********
*SRC=MUR870;MUR870;Diodes;Rectifier >5A;700V 8A
.MODEL MUR870 D (IS=494U RS=35M N=5.36 BV=700 IBV=25U
+ CJO=397P VJ=.75 M=.333 TT=122N)
* Motorola  700 Volt  8 Amp  85M us  Si Diode  02-24-1994
**********
*SRC=MUR880;MUR880;Diodes;Rectifier >5A;800V 8A
.MODEL MUR880 D (IS=494U RS=35M N=5.36 BV=800 IBV=25U
+ CJO=397P VJ=.75 M=.333 TT=122N)
* Motorola  800 Volt  8 Amp  85M us  Si Diode  02-24-1994
**********
*SRC=MUR890;MUR890;Diodes;Rectifier >5A;900V 8A
.MODEL MUR890 D (IS=494U RS=35M N=5.36 BV=900 IBV=25U
+ CJO=397P VJ=.75 M=.333 TT=122N)
* Motorola  900 Volt  8 Amp  85M us  Si Diode  02-24-1994
**********
*SRC=MUR8100;MUR8100;Diodes;Rectifier >5A;1000V 8A
.MODEL MUR8100 D (IS=494U RS=35M N=5.36 BV=1K IBV=25U
+ CJO=397P VJ=.75 M=.333 TT=122N)
* Motorola  1000 Volt  8 Amp  85M us  Si Diode  02-24-1994
**********
*SRC=MUR105;MUR105;Diodes;Rectifier <=5A;50V 1A
.MODEL MUR105 D (IS=13.5N RS=25.7M N=1.59 BV=66.6 IBV=2U
+ CJO=45P VJ=.75 M=.302 TT=50.4N)
* Motorola   50 Volt  1 Amp  .025 us  Si Diode  04-22-1991
**********
*SRC=MUR110;MUR110;Diodes;Rectifier <=5A;100V 1A
.MODEL MUR110 D (IS=13.5N RS=25.7M N=1.59 BV=133.3 IBV=2U
+ CJO=45P VJ=.75 M=.302 TT=50.4N)
* Motorola  100 Volt  1 Amp  .025 us  Si Diode  04-22-1991
**********
*SRC=MUR115;MUR115;Diodes;Rectifier <=5A;150V 1A
.MODEL MUR115 D (IS=13.5N RS=25.7M N=1.59 BV=200 IBV=2U
+ CJO=45P VJ=.75 M=.302 TT=50.4N)
* Motorola  150 Volt  1 Amp  .025 us  Si Diode  04-22-1991
**********
*SRC=MUR120;MUR120;Diodes;Rectifier <=5A;200V 1A
.MODEL MUR120 D (IS=1.08U RS=55.5M N=2.59 BV=266 IBV=5U
+ CJO=15.7P VJ=.75 M=.310 TT=108N)
* Motorola  200 Volt  1 Amp  .05 us  Si Diode  04-22-1991
**********
*SRC=MUR130;MUR130;Diodes;Rectifier <=5A;300V 1A
.MODEL MUR130 D (IS=1.08U RS=55.5M N=2.59 BV=400 IBV=5U
+ CJO=15.7P VJ=.75 M=.310 TT=108N)
* Motorola  300 Volt  1 Amp  .05 us  Si Diode  04-22-1991
**********
*SRC=MUR140;MUR140;Diodes;Rectifier <=5A;400V 1A
.MODEL MUR140 D (IS=1.08U RS=55.5M N=2.59 BV=533 IBV=5U
+ CJO=15.7P VJ=.75 M=.310 TT=108N)
* Motorola  400 Volt  1 Amp  .05 us  Si Diode  04-22-1991
**********
*SRC=MUR150;MUR150;Diodes;Rectifier <=5A;500V 1A
.MODEL MUR150 D (IS=1.08U RS=55.5M N=2.59 BV=499 IBV=5U
+ CJO=15.7P VJ=.75 M=.310 TT=108N)
* Motorola  500 Volt  1 Amp  .05 us  Si Diode  04-22-1991
**********
*SRC=MUR160;MUR160;Diodes;Rectifier <=5A;600V 1A
.MODEL MUR160 D (IS=1.08U RS=55.5M N=2.59 BV=800 IBV=5U
+ CJO=15.7P VJ=.75 M=.310 TT=108N)
* Motorola  600 Volt  1 Amp  .05 us  Si Diode  04-22-1991
**********
*SRC=MUR170;MUR170;Diodes;Rectifier <=5A;700V 1A
.MODEL MUR170 D (IS=4.41U RS=80.8M N=3.53 BV=933 IBV=10U
+ CJO=17P VJ=.75 M=.333 TT=144N)
* Motorola  700 Volt  1 Amp  .075 us  Si Diode  04-22-1991
**********
*SRC=MUR180;MUR180;Diodes;Rectifier <=5A;800V 1A
.MODEL MUR180 D (IS=4.41U RS=80.8M N=3.53 BV=1066 IBV=10U
+ CJO=17P VJ=.75 M=.333 TT=144N)
* Motorola  800 Volt  1 Amp  .075 us  Si Diode  04-22-1991
**********
*SRC=MUR190;MUR190;Diodes;Rectifier <=5A;900V 1A
.MODEL MUR190 D (IS=4.41U RS=80.8M N=3.53 BV=1200 IBV=10U
+ CJO=17P VJ=.75 M=.333 TT=144N)
* Motorola  900 Volt  1 Amp  .075 us  Si Diode  04-22-1991
**********
*SRC=MUR1100;MUR1100;Diodes;Rectifier <=5A;1000V 1A
.MODEL MUR1100 D (IS=4.41U RS=80.8M N=3.53 BV=1333 IBV=10U
+ CJO=17P VJ=.75 M=.333 TT=144N)
* Motorola  1000 Volt  1 Amp  .075 us  Si Diode  04-22-1991
**********
*SRC=MUR405;MUR405;Diodes;Rectifier <=5A;50V 4A
.MODEL MUR405 D (IS=46.8N RS=7.36M N=1.67 BV=66.6 IBV=5U
+ CJO=137P VJ=.75 M=.333 TT=36N)
* Motorola 50 Volt  4 Amp  .025 us  Si Diode  04-26-1991
**********
*SRC=MUR410;MUR410;Diodes;Rectifier <=5A;100V 4A
.MODEL MUR410 D (IS=46.8N RS=7.36M N=1.67 BV=133.3 IBV=5U
+ CJO=137P VJ=.75 M=.333 TT=36N)
* Motorola 100 Volt  4 Amp  .025 us  Si Diode  04-26-1991
**********
*SRC=MUR415;MUR415;Diodes;Rectifier <=5A;150V 4A
.MODEL MUR415 D (IS=46.8N RS=7.36M N=1.67 BV=200 IBV=5U
+ CJO=137P VJ=.75 M=.333 TT=36N)
* Motorola 150 Volt  4 Amp  .025 us  Si Diode  04-26-1991
**********
*SRC=MUR420;MUR420;Diodes;Rectifier <=5A;200V 4A
.MODEL MUR420 D (IS=2.15U RS=24.9M N=2.68 BV=266 IBV=10U
+ CJO=43.3P VJ=.75 M=.333 TT=72N)
*   Motorola 200 Volt  4 Amp  .05 us  Si Diode  04-26-1991
**********
*SRC=MUR430;MUR430;Diodes;Rectifier <=5A;300V 4A
.MODEL MUR430 D (IS=2.15U RS=24.9M N=2.68 BV=400 IBV=10U
+ CJO=43.3P VJ=.75 M=.333 TT=72N)
*   Motorola 300 Volt  4 Amp  .05 us  Si Diode  04-26-1991
**********
*SRC=MUR440;MUR440;Diodes;Rectifier <=5A;400V 4A
.MODEL MUR440 D (IS=2.15U RS=24.9M N=2.68 BV=533 IBV=10U
+ CJO=43.3P VJ=.75 M=.333 TT=72N)
*   Motorola 400 Volt  4 Amp  .05 us  Si Diode  04-26-1991
**********
*SRC=MUR450;MUR450;Diodes;Rectifier <=5A;500V 4A
.MODEL MUR450 D (IS=2.15U RS=24.9M N=2.68 BV=666.6 IBV=10U
+ CJO=43.3P VJ=.75 M=.333 TT=72N)
*   Motorola 500 Volt  4 Amp  .05 us  Si Diode  04-26-1991
**********
*SRC=MUR460;MUR460;Diodes;Rectifier <=5A;600V 4A
.MODEL MUR460 D (IS=2.15U RS=24.9M N=2.68 BV=800 IBV=10U
+ CJO=43.3P VJ=.75 M=.333 TT=72N)
*   Motorola 600 Volt  4 Amp  .05 us  Si Diode  04-26-1991
**********
*SRC=MUR470;MUR470;Diodes;Rectifier <=5A;700V 4A
.MODEL MUR470 D (IS=7.69U RS=39.9M N=2.96 BV=933 IBV=25U
+ CJO=73.3P VJ=.75 M=.333 TT=108N)
*   Motorola 700 Volt  4 Amp  .075 us  Si Diode  04-26-1991
**********
*SRC=MUR480;MUR480;Diodes;Rectifier <=5A;800V 4A
.MODEL MUR480 D (IS=7.69U RS=39.9M N=2.96 BV=1066 IBV=25U
+ CJO=73.3P VJ=.75 M=.333 TT=108N)
*   Motorola 800 Volt  4 Amp  .075 us  Si Diode  04-26-1991
**********
*SRC=MUR490;MUR490;Diodes;Rectifier <=5A;900V 4A
.MODEL MUR490 D (IS=7.69U RS=39.9M N=2.96 BV=1200 IBV=25U
+ CJO=73.3P VJ=.75 M=.333 TT=108N)
*   Motorola 900 Volt  4 Amp  .075 us  Si Diode  04-26-1991
**********
*SRC=MUR4100;MUR4100;Diodes;Rectifier <=5A;1000V 4A
.MODEL MUR4100 D (IS=7.69U RS=39.9M N=2.96 BV=1333 IBV=25U
+ CJO=73.3P VJ=.75 M=.333 TT=108N)
*   Motorola 1000 Volt  4 Amp  .075 us  Si Diode  04-26-1991
**********
*SRC=MUR3005PT;MUR3005;Diodes;Rectifier >5A;50V 15A
.MODEL MUR3005 D (IS=155U RS=7.52M N=2.84 BV=66.6 IBV=10U
+ CJO=503P VJ=.75 M=.337 TT=50.4N)
* Motorola 50 Volt  15 Amp  .035 us  Si Diode  04-22-1991
**********
*SRC=MUR3010PT;MUR3010;Diodes;Rectifier >5A;100V 15A
.MODEL MUR3010 D (IS=155U RS=7.52M N=2.84 BV=133.3 IBV=10U
+ CJO=503P VJ=.75 M=.337 TT=50.4N)
* Motorola 100 Volt  15 Amp  .035 us  Si Diode  04-22-1991
**********
*SRC=MUR3015PT;MUR3015;Diodes;Rectifier >5A;150V 15A
.MODEL MUR3015 D (IS=155U RS=7.52M N=2.84 BV=200 IBV=10U
+ CJO=503P VJ=.75 M=.337 TT=50.4N)
* Motorola 150 Volt  15 Amp  .035 us  Si Diode  04-22-1991
**********
*SRC=MUR3020PT;MUR3020;Diodes;Rectifier >5A;200V 15A
.MODEL MUR3020 D (IS=164U RS=11.1M N=3.18 BV=266.6 IBV=10U
+ CJO=503P VJ=.75 M=.337 TT=50.4N)
* Motorola 200 Volt  15 Amp  .01 us  Si Diode  04-22-1991
**********
*SRC=MUR3030PT;MUR3030;Diodes;Rectifier >5A;300V 15A
.MODEL MUR3030 D (IS=164U RS=11.1M N=3.18 BV=400 IBV=10U
+ CJO=503P VJ=.75 M=.337 TT=14.4N)
* Motorola 300 Volt  15 Amp  .01 us  Si Diode  04-22-1991
**********
*SRC=MUR3040PT;MUR3040;Diodes;Rectifier >5A;400V 15A
.MODEL MUR3040 D (IS=164U RS=11.1M N=3.18 BV=533.3 IBV=10U
+ CJO=503P VJ=.75 M=.337 TT=14.4N)
* Motorola 400 Volt  15 Amp  .01 us  Si Diode  04-22-1991
**********
*SRC=MUR3050PT;MUR3050;Diodes;Rectifier >5A;500V 15A
.MODEL MUR3050 D (IS=235U RS=35M N=3.68 BV=500 IBV=10U
+ CJO=517P VJ=.75 M=.333 TT=86.4N)
*  500 Volt  15 Amp  60M us  Si Diode  02-24-1994
**********
*SRC=MUR3060PT;MUR3060;Diodes;Rectifier >5A;600V 15A
.MODEL MUR3060 D (IS=235U RS=35M N=3.68 BV=600 IBV=10U
+ CJO=517P VJ=.75 M=.333 TT=86.4N)
*  600 Volt  15 Amp  60M us  Si Diode  02-24-1994
**********
*SRC=MUR10005;MUR10005;Diodes;Rectifier >5A;50V 80A
.MODEL MUR10005 D (IS=61.1U RS=822U N=2.51 BV=66.6 IBV=25U
+ CJO=424P VJ=.75 M=.195 TT=72N)
* Motorola 50 Volt  50 Amp  .05 us  Si Diode  04-22-1991
**********
*SRC=MUR10010;MUR10010;Diodes;Rectifier >5A;100V 80A
.MODEL MUR10010 D (IS=61.1U RS=822U N=2.51 BV=133.3 IBV=25U
+ CJO=424P VJ=.75 M=.195 TT=72N)
* Motorola 100 Volt  50 Amp  .05 us  Si Diode  04-22-1991
**********
*SRC=MUR10015;MUR10015;Diodes;Rectifier >5A;150V 80A
.MODEL MUR10015 D (IS=61.1U RS=822U N=2.51 BV=200 IBV=25U
+ CJO=424P VJ=.75 M=.195 TT=72N)
* Motorola 150 Volt  50 Amp  .05 us  Si Diode  04-22-1991
**********
*SRC=MUR10020;MUR10020;Diodes;Rectifier >5A;200V 80A
.MODEL MUR10020 D (IS=61.1U RS=822U N=2.51 BV=266.6 IBV=25U
+ CJO=424P VJ=.75 M=.195 TT=72N)
* Motorola 200 Volt  50 Amp  .05 us  Si Diode  04-22-1991
**********
*SRC=MUR605CT;MUR605CT;Diodes;Rectifier >5A;50V 6A
.MODEL MUR605CT D (IS=3.02U RS=13.3M N=2.51 BV=66.6 IBV=20N
+ CJO=197P VJ=.75 M=.333 TT=40.2N)
*   Motorola 50 Volt  3 Amp  .03 us  Si Diode  04-26-1991
**********
*SRC=MUR610CT;MUR610CT;Diodes;Rectifier >5A;100V 6A
.MODEL MUR610CT D (IS=3.02U RS=13.3M N=2.51 BV=133.3 IBV=20N
+ CJO=197P VJ=.75 M=.333 TT=40.2N)
*   Motorola 100 Volt  3 Amp  .03 us  Si Diode  04-26-1991
**********
*SRC=MUR615CT;MUR615CT;Diodes;Rectifier >5A;150V 6A
.MODEL MUR615CT D (IS=3.02U RS=13.3M N=2.51 BV=200 IBV=20N
+ CJO=197P VJ=.75 M=.333 TT=50.2N)
*   Motorola 150 Volt  3 Amp  .03 us  Si Diode  04-26-1991
**********
*SRC=MUR620CT;MUR620CT;Diodes;Rectifier >5A;200V 6A
.MODEL MUR620CT D (IS=3.02U RS=13.3M N=2.51 BV=266.6 IBV=20N
+ CJO=197P VJ=.75 M=.333 TT=50.2N)
*   Motorola 200 Volt  3 Amp  .03 us  Si Diode  04-26-1991
**********
*SRC=1N914;DN914;Diodes;Switching;100V 75mA
.MODEL DN914 D (IS=4.77E-10 N=1.59 BV=133.3 IBV=1.00E-07
+ RS=6.01E-01 CJO=4.00E-12 VJ=.75 M=.333 TT=5.76E-09)
* Unitrode 100 Volt   0.08 Amp   4.00 ns  Si Switching   Diode  07-01-1990
**********
*SRC=1N4531;DN4531;Diodes;Switching;100V 125mA
.MODEL DN4531 D (IS=1.42E-09 N=1.55 BV=1.33E+02 IBV=1.00E-07
+ RS=6.01E-01 CJO=4.00E-12 VJ=.75 M=.333 TT=7.20E-09)
* Unitrode  100 Volt   0.13 Amp   5.00 ns  Si Switching   Diode  07-01-1990
**********
*SRC=1N4149;DN4149;Diodes;Switching;75V 200mA
.MODEL DN4149 D (IS=1.44E-10 N=1.67 BV=1.00E+02 IBV=1.00E-05
+ RS=2.10E-01 CJO=4.00E-12 VJ=.75 M=.333 TT=5.76E-09)
* Unitrode  75 Volt   0.20 Amp   4.00 ns  Si Switching   Diode  07-01-1990
**********
*SRC=1N4151;DN4151;Diodes;Switching;75V 200mA
.MODEL DN4151 D (IS=8.74E-10 N=1.67 BV=1.00E+02 IBV=2.50E-05
+ RS=3.42E-01 CJO=4.00E-12 VJ=.75 M=.333 TT=2.88E-09)
* Unitrode  75 Volt   0.20 Amp   2.00 ns  Si Switching   Diode  07-01-1990
**********
*SRC=1N4154;DN4154;Diodes;Switching;35V 200mA
.MODEL DN4154 D (IS=4.77E-10 N=1.67 BV=4.66E+01 IBV=1.00E-05
+ RS=2.95E-01 CJO=4.00E-12 VJ=.75 M=.333 TT=2.88E-09)
* Unitrode  35 Volt   0.20 Amp   2.00 ns  Si Switching   Diode  07-01-1990
**********
*SRC=1N4446;DN4446;Diodes;Switching;75V 200mA
.MODEL DN4446 D (IS=3.03E-11 N=1.70 BV=1.00E+02 IBV=5.00E-05
+ RS=2.10E-01 CJO=4.00E-12 VJ=.75 M=.333 TT=5.76E-09)