**********
* Copyright Intusoft 1988-1997
* All Rights Reserved
**********
**********
*Motorola Zener Diodes
**********
*SRC=1N429;ZN429;Diodes;Zener <=10V;6.2V .2W
.MODEL ZN429 D (IS=11.2F RS=9.22 N=1 BV=6.133 IBV=7.5M
+ CJO=28.2P VJ=.75 M=.33 TT=50.1N)
* Motorola 6.2 Volt  .2 Watt  Zener Diode  06-15-1993
**********
*SRC=1N4057;ZN4057;Diodes;Zener 10V-50V;12.4V 1.5W
.MODEL ZN4057 D (IS=7.79N RS=22.4 N=1 BV=12.18 IBV=10M
+ CJO=129P VJ=1 M=.33 TT=50.1N)
* Motorola 12.4 Volt  1.5 Watt  Zener Diode  06-15-1993
**********
*SRC=1N4058;ZN4058;Diodes;Zener 10V-50V;14.6V 1.5W
.MODEL ZN4058 D (IS=7.79N RS=27.4 N=1 BV=14.33 IBV=10M
+ CJO=112P VJ=1 M=.33 TT=50.1N)
* Motorola 14.6 Volt  1.5 Watt  Zener Diode  06-15-1993
**********
*SRC=1N4059;ZN4059;Diodes;Zener 10V-50V;16.8V 1.5W
.MODEL ZN4059 D (IS=7.79N RS=27.4 N=1 BV=16.53 IBV=10M
+ CJO=99.8P VJ=1 M=.33 TT=50.1N)
* Motorola 16.8 Volt  1.5 Watt  Zener Diode  06-15-1993
**********
*SRC=1N4060;ZN4060;Diodes;Zener 10V-50V;18.5V 1.5W
.MODEL ZN4060 D (IS=7.79N RS=27.4 N=1 BV=18.23 IBV=10M
+ CJO=92P VJ=1 M=.33 TT=50.1N)
* Motorola 18.5 Volt  1.5 Watt  Zener Diode  06-15-1993
**********
*SRC=1N4061;ZN4061;Diodes;Zener 10V-50V;21V 1.5W
.MODEL ZN4061 D (IS=7.79N RS=32.4 N=1 BV=20.68 IBV=10M
+ CJO=82.8P VJ=1 M=.33 TT=50.1N)
* Motorola 21 Volt  1.5 Watt  Zener Diode  06-15-1993
**********
*SRC=1N4062;ZN4062;Diodes;Zener 10V-50V;23V 1.5W
.MODEL ZN4062 D (IS=7.79N RS=37.4 N=1 BV=22.63 IBV=10M
+ CJO=76.9P VJ=1 M=.33 TT=50.1N)
* Motorola 23 Volt  1.5 Watt  Zener Diode  06-15-1993
**********
*SRC=1N4063;ZN4063;Diodes;Zener 10V-50V;27V 1.5W
.MODEL ZN4063 D (IS=7.79N RS=42.4 N=1 BV=26.58 IBV=10M
+ CJO=67.8P VJ=1 M=.33 TT=50.1N)
* Motorola 27 Volt  1.5 Watt  Zener Diode  06-15-1993
**********
*SRC=1N4064;ZN4064;Diodes;Zener 10V-50V;30V 1.5W
.MODEL ZN4064 D (IS=7.79N RS=47.4 N=1 BV=29.54 IBV=10M
+ CJO=62.5P VJ=1 M=.33 TT=50.1N)
* Motorola 30 Volt  1.5 Watt  Zener Diode  06-15-1993
**********
*SRC=1N4065;ZN4065;Diodes;Zener 10V-50V;33V 1.5W
.MODEL ZN4065 D (IS=7.79N RS=52.4 N=1 BV=32.49 IBV=10M
+ CJO=58.2P VJ=1 M=.33 TT=50.1N)
* Motorola 33 Volt  1.5 Watt  Zener Diode  06-15-1993
**********
*SRC=1N4066;ZN4066;Diodes;Zener 10V-50V;37V 1.5W
.MODEL ZN4066 D (IS=7.79N RS=76.5 N=1 BV=36.44 IBV=7.5M
+ CJO=53.5P VJ=1 M=.33 TT=50.1N)
* Motorola 37 Volt  1.5 Watt  Zener Diode  06-15-1993
**********
*SRC=1N4067;ZN4067;Diodes;Zener 10V-50V;43V 1.5W
.MODEL ZN4067 D (IS=7.79N RS=86.5 N=1 BV=42.37 IBV=7.5M
+ CJO=48.1P VJ=1 M=.33 TT=50.1N)
* Motorola 43 Volt  1.5 Watt  Zener Diode  06-15-1993
**********
*SRC=1N4068;ZN4068;Diodes;Zener 10V-50V;47V 1.5W
.MODEL ZN4068 D (IS=7.79N RS=96.5 N=1 BV=46.29 IBV=7.5M
+ CJO=45.3P VJ=1 M=.33 TT=50.1N)
* Motorola 47 Volt  1.5 Watt  Zener Diode  06-15-1993
**********
*SRC=1N4069;ZN4069;Diodes;Zener >50V;51V 2W
.MODEL ZN4069 D (IS=10.3N RS=106 N=1 BV=50.22 IBV=7.5M
+ CJO=52.2P VJ=1 M=.33 TT=50.1N)
* Motorola 51 Volt  2 Watt  Zener Diode  06-15-1993
**********
*SRC=1N4070;ZN4070;Diodes;Zener >50V;56V 2W
.MODEL ZN4070 D (IS=10.3N RS=116 N=1 BV=55.15 IBV=7.5M
+ CJO=48.9P VJ=1 M=.33 TT=50.1N)
* Motorola 56 Volt  2 Watt  Zener Diode  06-15-1993
**********
*SRC=1N4071;ZN4071;Diodes;Zener >50V;62V 2W
.MODEL ZN4071 D (IS=10.3N RS=131 N=1 BV=61.04 IBV=7.5M
+ CJO=45.6P VJ=1 M=.33 TT=50.1N)
* Motorola 62 Volt  2 Watt  Zener Diode  06-15-1993
**********
*SRC=1N4072;ZN4072;Diodes;Zener >50V;68V 2W
.MODEL ZN4072 D (IS=10.3N RS=224 N=1 BV=66.90 IBV=5M
+ CJO=42.9P VJ=1 M=.33 TT=50.1N)
* Motorola 68 Volt  2 Watt  Zener Diode  06-15-1993
**********
*SRC=1N4073;ZN4073;Diodes;Zener >50V;75V 2W
.MODEL ZN4073 D (IS=10.3N RS=244 N=1 BV=73.81 IBV=5M
+ CJO=40.3P VJ=1 M=.33 TT=50.1N)
* Motorola 75 Volt  2 Watt  Zener Diode  06-15-1993
**********
*SRC=1N4074;ZN4074;Diodes;Zener >50V;82V 2W
.MODEL ZN4074 D (IS=10.3N RS=264 N=1 BV=80.71 IBV=5M
+ CJO=38.1P VJ=1 M=.33 TT=50.1N)
* Motorola 82 Volt  2 Watt  Zener Diode  06-15-1993
**********
*SRC=1N4075;ZN4075;Diodes;Zener >50V;87V 2W
.MODEL ZN4075 D (IS=10.3N RS=284 N=1 BV=85.61 IBV=5M
+ CJO=36.8P VJ=1 M=.33 TT=50.1N)
* Motorola 87 Volt  2 Watt  Zener Diode  06-15-1993
**********
*SRC=1N4076;ZN4076;Diodes;Zener >50V;91V 2W
.MODEL ZN4076 D (IS=10.3N RS=304 N=1 BV=89.52 IBV=5M
+ CJO=35.8P VJ=1 M=.33 TT=50.1N)
* Motorola 91 Volt  2 Watt  Zener Diode  06-15-1993
**********
*SRC=1N4077;ZN4077;Diodes;Zener >50V;100V 2W
.MODEL ZN4077 D (IS=10.3N RS=334 N=1 BV=98.37 IBV=5M
+ CJO=34P VJ=1 M=.33 TT=50.1N)
* Motorola 100 Volt  2 Watt  Zener Diode  06-15-1993
**********
*SRC=1N4078;ZN4078;Diodes;Zener >50V;105V 2W
.MODEL ZN4078 D (IS=10.3N RS=689 N=1 BV=103.3 IBV=2.5M
+ CJO=33.1P VJ=1 M=.33 TT=50.1N)
* Motorola 105 Volt  2 Watt  Zener Diode  06-15-1993
**********
*SRC=1N4079;ZN4079;Diodes;Zener >50V;110V 2W
.MODEL ZN4079 D (IS=10.3N RS=730 N=1 BV=108.2 IBV=2.5M
+ CJO=32.2P VJ=1 M=.33 TT=50.1N)
* Motorola 110 Volt  2 Watt  Zener Diode  06-15-1993
**********
*SRC=1N4080;ZN4080;Diodes;Zener >50V;120V 2W
.MODEL ZN4080 D (IS=10.3N RS=790 N=1 BV=118.0 IBV=2.5M
+ CJO=30.8P VJ=1 M=.33 TT=50.1N)
* Motorola 120 Volt  2 Watt  Zener Diode  06-15-1993
**********
*SRC=1N4081;ZN4081;Diodes;Zener >50V;130V 2.5W
.MODEL ZN4081 D (IS=12.9N RS=830 N=1 BV=127.9 IBV=2.5M
+ CJO=33.2P VJ=1 M=.33 TT=50.1N)
* Motorola 130 Volt  2.5 Watt  Zener Diode  06-15-1993
**********
*SRC=1N4082;ZN4082;Diodes;Zener >50V;140V 2.5W
.MODEL ZN4082 D (IS=12.9N RS=950 N=1 BV=137.6 IBV=2.5M
+ CJO=31.9P VJ=1 M=.33 TT=50.1N)
* Motorola 140 Volt  2.5 Watt  Zener Diode  06-15-1993
**********
*SRC=1N4083;ZN4083;Diodes;Zener >50V;150V 2.5W
.MODEL ZN4083 D (IS=12.9N RS=1.01K N=1 BV=147.5 IBV=2.5M
+ CJO=30.8P VJ=1 M=.33 TT=50.1N)
* Motorola 150 Volt  2.5 Watt  Zener Diode  06-15-1993
**********
*SRC=1N4084;ZN4084;Diodes;Zener >50V;175V 2.5W
.MODEL ZN4084 D (IS=12.9N RS=1.14K N=1 BV=172.2 IBV=2.5M
+ CJO=28.5P VJ=1 M=.33 TT=50.1N)
* Motorola 175 Volt  2.5 Watt  Zener Diode  06-15-1993
**********
*SRC=1N4085;ZN4085;Diodes;Zener >50V;200V 2.5W
.MODEL ZN4085 D (IS=12.9N RS=1.34K N=1 BV=196.7 IBV=2.5M
+ CJO=26.8P VJ=1 M=.33 TT=50.1N)
* Motorola 200 Volt  2.5 Watt  Zener Diode  06-15-1993
**********
*SRC=1N1735;ZN1735;Diodes;Zener <=10V;6.2V .2W
.MODEL ZN1735 D (IS=1.6F RS=11.5 N=1 BV=6.116 IBV=7.5M
+ CJO=28.2P VJ=.75 M=.33 TT=50.1N)
* Motorola 6.2 Volt  .2 Watt  Zener Diode  06-15-1993
**********
*SRC=1N1530;ZN1530;Diodes;Zener <=10V;8.4V .25W
.MODEL ZN1530 D (IS=1.73F RS=8.47 N=1 BV=8.319 IBV=10M
+ CJO=22.3P VJ=.75 M=.33 TT=50.1N)
* Motorola 8.4 Volt  .25 Watt  Zener Diode  06-15-1993
**********
*SRC=1N1736;ZN1736;Diodes;Zener 10V-50V;12.4V .4W
.MODEL ZN1736 D (IS=9.17P RS=31.5 N=1 BV=12.16 IBV=7.5M
+ CJO=45.6P VJ=1 M=.33 TT=50.1N)
* Motorola 12.4 Volt  .4 Watt  Zener Diode  06-15-1993
**********
*SRC=1N1737;ZN1737;Diodes;Zener 10V-50V;18.6V .6W
.MODEL ZN1737 D (IS=3.11N RS=51.5 N=1 BV=18.22 IBV=7.5M
+ CJO=45.6P VJ=1 M=.33 TT=50.1N)
* Motorola 18.6 Volt  .6 Watt  Zener Diode  06-15-1993
**********
*SRC=1N1738;ZN1738;Diodes;Zener 10V-50V;24.6V .8W
.MODEL ZN1738 D (IS=4.15N RS=71.5 N=1 BV=24.07 IBV=7.5M
+ CJO=45.9P VJ=1 M=.33 TT=50.1N)
* Motorola 24.6 Volt  .8 Watt  Zener Diode  06-15-1993
**********
*SRC=1N1739;ZN1739;Diodes;Zener 10V-50V;31V 1W
.MODEL ZN1739 D (IS=5.19N RS=91.5 N=1 BV=30.32 IBV=7.5M
+ CJO=45.6P VJ=1 M=.33 TT=50.1N)
* Motorola 31 Volt  1 Watt  Zener Diode  06-15-1993
**********
*SRC=1N1740;ZN1740;Diodes;Zener 10V-50V;37.2V 1.2W
.MODEL ZN1740 D (IS=6.23N RS=111 N=1 BV=36.38 IBV=7.5M
+ CJO=45.6P VJ=1 M=.33 TT=50.1N)
* Motorola 37.2 Volt  1.2 Watt  Zener Diode  06-15-1993
**********
*SRC=1N1741;ZN1741;Diodes;Zener 10V-50V;43.4V 1.4W
.MODEL ZN1741 D (IS=7.27N RS=131 N=1 BV=42.43 IBV=7.5M
+ CJO=45.6P VJ=1 M=.33 TT=50.1N)
* Motorola 43.4 Volt  1.4 Watt  Zener Diode  06-15-1993
**********
*SRC=1N1742;ZN1742;Diodes;Zener 10V-50V;49.6V 1.6W
.MODEL ZN1742 D (IS=8.31N RS=171 N=1 BV=48.33 IBV=7.5M
+ CJO=45.6P VJ=1 M=.33 TT=50.1N)
* Motorola 49.6 Volt  1.6 Watt  Zener Diode  06-15-1993
**********
*SRC=1N2970A;ZN2970A;Diodes;Zener <=10V;6.8V 10W
.MODEL ZN2970A D (IS=3.28E-17 RS=.53 N=1 BV=6.607 IBV=.37
+ CJO=1.23N VJ=.75 M=.33 TT=50.1N)
* Motorola 6.8 Volt  10 Watt  Zener Diode  06-15-1993
**********
*SRC=1N2971A;ZN2971A;Diodes;Zener <=10V;7.5V 10W
.MODEL ZN2971A D (IS=1.32F RS=.572 N=1 BV=7.311 IBV=.335
+ CJO=1.06N VJ=.75 M=.33 TT=50.1N)
* Motorola 7.5 Volt  10 Watt  Zener Diode  06-15-1993
**********
*SRC=1N2972A;ZN2972A;Diodes;Zener <=10V;8.2V 10W
.MODEL ZN2972A D (IS=2.7F RS=.665 N=1 BV=8.001 IBV=.305
+ CJO=928P VJ=.75 M=.33 TT=50.1N)
* Motorola 8.2 Volt  10 Watt  Zener Diode  06-15-1993
**********
*SRC=1N2973A;ZN2973A;Diodes;Zener <=10V;9.1V 10W
.MODEL ZN2973A D (IS=2.52F RS=.656 N=1 BV=8.924 IBV=.275
+ CJO=794P VJ=.75 M=.33 TT=50.1N)
* Motorola 9.1 Volt  10 Watt  Zener Diode  06-15-1993
**********
*SRC=1N2974A;ZN2974A;Diodes;Zener <=10V;10V 10W
.MODEL ZN2974A D (IS=.555F RS=.896 N=1 BV=9.780 IBV=.25
+ CJO=689P VJ=.75 M=.33 TT=50.1N)
* Motorola 10 Volt  10 Watt  Zener Diode  06-15-1993
**********
*SRC=1N2975A;ZN2975A;Diodes;Zener 10V-50V;11V 10W
.MODEL ZN2975A D (IS=24.6F RS=1.38 N=1 BV=10.68 IBV=.23
+ CJO=879P VJ=1 M=.33 TT=50.1N)
* Motorola 11 Volt  10 Watt  Zener Diode  06-15-1993
**********
*SRC=1N2976A;ZN2976A;Diodes;Zener 10V-50V;12V 10W
.MODEL ZN2976A D (IS=22.6F RS=1.37 N=1 BV=11.71 IBV=.21
+ CJO=807P VJ=1 M=.33 TT=50.1N)
* Motorola 12 Volt  10 Watt  Zener Diode  06-15-1993
**********
*SRC=1N2977A;ZN2977A;Diodes;Zener 10V-50V;13V 10W
.MODEL ZN2977A D (IS=20.4F RS=1.36 N=1 BV=12.74 IBV=.19
+ CJO=746P VJ=1 M=.33 TT=50.1N)
* Motorola 13 Volt  10 Watt  Zener Diode  06-15-1993
**********
*SRC=1N2978A;ZN2978A;Diodes;Zener 10V-50V;14V 10W
.MODEL ZN2978A D (IS=19.3F RS=1.35 N=1 BV=13.76 IBV=.18
+ CJO=693P VJ=1 M=.33 TT=50.1N)
* Motorola 14 Volt  10 Watt  Zener Diode  06-15-1993
**********
*SRC=1N2979A;ZN2979A;Diodes;Zener 10V-50V;15V 10W
.MODEL ZN2979A D (IS=18.1F RS=1.34 N=1 BV=14.77 IBV=.17
+ CJO=648P VJ=1 M=.33 TT=50.1N)
* Motorola 15 Volt  10 Watt  Zener Diode  06-15-1993
**********
*SRC=1N2980A;ZN2980A;Diodes;Zener 10V-50V;16V 10W
.MODEL ZN2980A D (IS=767F RS=1.83 N=1 BV=15.72 IBV=.155
+ CJO=609P VJ=1 M=.33 TT=50.1N)
* Motorola 16 Volt  10 Watt  Zener Diode  06-15-1993
**********
*SRC=1N2982A;ZN2982A;Diodes;Zener 10V-50V;18V 10W
.MODEL ZN2982A D (IS=667F RS=1.81 N=1 BV=17.75 IBV=.14
+ CJO=543P VJ=1 M=.33 TT=50.1N)
* Motorola 18 Volt  10 Watt  Zener Diode  06-15-1993
**********
*SRC=1N2983A;ZN2983A;Diodes;Zener 10V-50V;19V 10W
.MODEL ZN2983A D (IS=598F RS=1.8 N=1 BV=18.77 IBV=.13
+ CJO=515P VJ=1 M=.33 TT=50.1N)
* Motorola 19 Volt  10 Watt  Zener Diode  06-15-1993
**********
*SRC=1N2984A;ZN2984A;Diodes;Zener 10V-50V;20V 10W
.MODEL ZN2984A D (IS=562F RS=1.79 N=1 BV=19.78 IBV=.125
+ CJO=490P VJ=1 M=.33 TT=50.1N)
* Motorola 20 Volt  10 Watt  Zener Diode  06-15-1993
**********
*SRC=1N2985A;ZN2985A;Diodes;Zener 10V-50V;22V 10W
.MODEL ZN2985A D (IS=23.2P RS=2.27 N=1 BV=21.74 IBV=.115
+ CJO=447P VJ=1 M=.33 TT=50.1N)
* Motorola 22 Volt  10 Watt  Zener Diode  06-15-1993
**********
*SRC=1N2986A;ZN2986A;Diodes;Zener 10V-50V;24V 10W
.MODEL ZN2986A D (IS=19.6P RS=2.25 N=1 BV=23.77 IBV=.105
+ CJO=411P VJ=1 M=.33 TT=50.1N)
* Motorola 24 Volt  10 Watt  Zener Diode  06-15-1993
**********
*SRC=1N2988A;ZN2988A;Diodes;Zener 10V-50V;27V 10W
.MODEL ZN2988A D (IS=331P RS=3.22 N=1 BV=26.70 IBV=95M
+ CJO=367P VJ=1 M=.33 TT=50.1N)
* Motorola 27 Volt  10 Watt  Zener Diode  06-15-1993
**********
*SRC=1N2989A;ZN2989A;Diodes;Zener 10V-50V;30V 10W
.MODEL ZN2989A D (IS=331P RS=3.69 N=1 BV=29.70 IBV=85M
+ CJO=331P VJ=1 M=.33 TT=50.1N)
* Motorola 30 Volt  10 Watt  Zener Diode  06-15-1993
**********
*SRC=1N2990A;ZN2990A;Diodes;Zener 10V-50V;33V 10W
.MODEL ZN2990A D (IS=331P RS=4.15 N=1 BV=32.70 IBV=75M
+ CJO=303P VJ=1 M=.33 TT=50.1N)
* Motorola 33 Volt  10 Watt  Zener Diode  06-15-1993
**********
*SRC=1N2991A;ZN2991A;Diodes;Zener 10V-50V;36V 10W
.MODEL ZN2991A D (IS=331P RS=4.63 N=1 BV=35.69 IBV=70M
+ CJO=279P VJ=1 M=.33 TT=50.1N)
* Motorola 36 Volt  10 Watt  Zener Diode  06-15-1993
**********
*SRC=1N2992A;ZN2992A;Diodes;Zener 10V-50V;30V 10W
.MODEL ZN2992A D (IS=331P RS=5.1 N=1 BV=29.68 IBV=65M
+ CJO=331P VJ=1 M=.33 TT=50.1N)
* Motorola 30 Volt  10 Watt  Zener Diode  06-15-1993
**********
*SRC=1N2993A;ZN2993A;Diodes;Zener 10V-50V;43V 10W
.MODEL ZN2993A D (IS=331P RS=5.57 N=1 BV=42.68 IBV=60M
+ CJO=236P VJ=1 M=.33 TT=50.1N)
* Motorola 43 Volt  10 Watt  Zener Diode  06-15-1993
**********
*SRC=1N2995A;ZN2995A;Diodes;Zener 10V-50V;47V 10W
.MODEL ZN2995A D (IS=331P RS=6.53 N=1 BV=46.66 IBV=55M
+ CJO=217P VJ=1 M=.33 TT=50.1N)
* Motorola 47 Volt  10 Watt  Zener Diode  06-15-1993
**********
*SRC=1N2996A;ZN2996A;Diodes;Zener 10V-50V;50V 10W
.MODEL ZN2996A D (IS=331P RS=6.98 N=1 BV=49.67 IBV=50M
+ CJO=205P VJ=1 M=.33 TT=50.1N)
* Motorola 50 Volt  10 Watt  Zener Diode  06-15-1993
**********
*SRC=1N2997A;ZN2997A;Diodes;Zener >50V;51V 10W
.MODEL ZN2997A D (IS=331P RS=6.98 N=1 BV=50.67 IBV=50M
+ CJO=201P VJ=1 M=.33 TT=50.1N)
* Motorola 51 Volt  10 Watt  Zener Diode  06-15-1993
**********
*SRC=1N2998A;ZN2998A;Diodes;Zener >50V;52V 10W
.MODEL ZN2998A D (IS=331P RS=6.98 N=1 BV=51.67 IBV=50M
+ CJO=197P VJ=1 M=.33 TT=50.1N)
* Motorola 52 Volt  10 Watt  Zener Diode  06-15-1993
**********
*SRC=1N2999A;ZN2999A;Diodes;Zener >50V;56V 10W
.MODEL ZN2999A D (IS=331P RS=7.42 N=1 BV=55.69 IBV=45M
+ CJO=184P VJ=1 M=.33 TT=50.1N)
* Motorola 56 Volt  10 Watt  Zener Diode  06-15-1993
**********
*SRC=1N3000A;ZN3000A;Diodes;Zener >50V;62V 10W
.MODEL ZN3000A D (IS=331P RS=7.85 N=1 BV=61.71 IBV=40M
+ CJO=168P VJ=1 M=.33 TT=50.1N)
* Motorola 62 Volt  10 Watt  Zener Diode  06-15-1993
**********
*SRC=1N3001A;ZN3001A;Diodes;Zener >50V;68V 10W
.MODEL ZN3001A D (IS=331P RS=8.3 N=1 BV=67.72 IBV=37M
+ CJO=154P VJ=1 M=.33 TT=50.1N)
* Motorola 68 Volt  10 Watt  Zener Diode  06-15-1993
**********
*SRC=1N3002A;ZN3002A;Diodes;Zener >50V;75V 10W
.MODEL ZN3002A D (IS=331P RS=10.2 N=1 BV=74.70 IBV=33M
+ CJO=141P VJ=1 M=.33 TT=50.1N)
* Motorola 75 Volt  10 Watt  Zener Diode  06-15-1993
**********
*SRC=1N3003A;ZN3003A;Diodes;Zener >50V;82V 10W
.MODEL ZN3003A D (IS=331P RS=11.6 N=1 BV=81.69 IBV=30M
+ CJO=130P VJ=1 M=.33 TT=50.1N)
* Motorola 82 Volt  10 Watt  Zener Diode  06-15-1993
**********
*SRC=1N3004A;ZN3004A;Diodes;Zener >50V;91V 10W
.MODEL ZN3004A D (IS=331P RS=15.5 N=1 BV=90.60 IBV=28M
+ CJO=119P VJ=1 M=.33 TT=50.1N)
* Motorola 91 Volt  10 Watt  Zener Diode  06-15-1993
**********
*SRC=1N3005A;ZN3005A;Diodes;Zener >50V;100V 10W
.MODEL ZN3005A D (IS=331P RS=18.9 N=1 BV=99.57 IBV=25M
+ CJO=110P VJ=1 M=.33 TT=50.1N)
* Motorola 100 Volt  10 Watt  Zener Diode  06-15-1993
**********
*SRC=1N3006A;ZN3006A;Diodes;Zener >50V;105V 10W
.MODEL ZN3006A D (IS=331P RS=21.4 N=1 BV=104.5 IBV=25M
+ CJO=105P VJ=1 M=.33 TT=50.1N)
* Motorola 105 Volt  10 Watt  Zener Diode  06-15-1993
**********
*SRC=1N3007A;ZN3007A;Diodes;Zener >50V;110V 10W
.MODEL ZN3007A D (IS=331P RS=26.3 N=1 BV=109.4 IBV=23M
+ CJO=101P VJ=1 M=.33 TT=50.1N)
* Motorola 110 Volt  10 Watt  Zener Diode  06-15-1993
**********
*SRC=1N3008A;ZN3008A;Diodes;Zener >50V;120V 10W
.MODEL ZN3008A D (IS=331P RS=36.2 N=1 BV=119.3 IBV=20M
+ CJO=94.2P VJ=1 M=.33 TT=50.1N)
* Motorola 120 Volt  10 Watt  Zener Diode  06-15-1993
**********
*SRC=1N3009A;ZN3009A;Diodes;Zener >50V;130V 10W
.MODEL ZN3009A D (IS=331P RS=48.6 N=1 BV=129.1 IBV=19M
+ CJO=88.1P VJ=1 M=.33 TT=50.1N)
* Motorola 130 Volt  10 Watt  Zener Diode  06-15-1993
**********
*SRC=1N3010A;ZN3010A;Diodes;Zener >50V;140V 10W
.MODEL ZN3010A D (IS=331P RS=61 N=1 BV=138.9 IBV=18M
+ CJO=82.8P VJ=1 M=.33 TT=50.1N)
* Motorola 140 Volt  10 Watt  Zener Diode  06-15-1993
**********
*SRC=1N3011A;ZN3011A;Diodes;Zener >50V;150V 10W
.MODEL ZN3011A D (IS=331P RS=136 N=1 BV=147.7 IBV=17M
+ CJO=78.3P VJ=1 M=.33 TT=50.1N)
* Motorola 150 Volt  10 Watt  Zener Diode  06-15-1993
**********
*SRC=1N3012A;ZN3012A;Diodes;Zener >50V;160V 10W
.MODEL ZN3012A D (IS=331P RS=98.4 N=1 BV=158.5 IBV=16M
+ CJO=74.4P VJ=1 M=.33 TT=50.1N)
* Motorola 160 Volt  10 Watt  Zener Diode  06-15-1993
**********
*SRC=1N3014A;ZN3014A;Diodes;Zener >50V;180V 10W
.MODEL ZN3014A D (IS=331P RS=128 N=1 BV=178.2 IBV=14M
+ CJO=67.8P VJ=1 M=.33 TT=50.1N)
* Motorola 180 Volt  10 Watt  Zener Diode  06-15-1993
**********
*SRC=1N3015A;ZN3015A;Diodes;Zener >50V;200V 10W
.MODEL ZN3015A D (IS=331P RS=147 N=1 BV=198.3 IBV=12M
+ CJO=62.5P VJ=1 M=.33 TT=50.1N)
* Motorola 200 Volt  10 Watt  Zener Diode  06-15-1993
**********
*SRC=1N4467;ZN4467;Diodes;Zener 10V-50V;12V 1.5W
.MODEL ZN4467 D (IS=9.67F RS=4.26 N=1 BV=11.91 IBV=21M
+ CJO=94.2P VJ=1 M=.33 TT=50.1N)
* Motorola 12 Volt Zener Diode  12-11-1995
**********
*SRC=1N4475;ZN4475;Diodes;Zener 10V-50V;27V 1W
.MODEL ZN4475 D (IS=222P RS=17.2 N=1 BV=26.84 IBV=9.5M
+ CJO=50.2P VJ=1 M=.33 TT=50.1N)
* Motorola 27 Volt Zener Diode  12-11-1995
**********
*SRC=1N4569A;ZN4569A;Diodes;Zener 10V-50V;6.4V .4W
.MODEL ZN4569A D (IS=.582F RS=.25 N=1 BV=6.403 IBV=500U
+ CJO=53.8P VJ=.75 M=.33 TT=50.1N)
* Motorola 6.4 Volt  .4 Watt  Zener Diode  12-11-1995
**********
*SRC=1N4728;ZN4728;Diodes;Zener <=10V;3.3V 1W
.MODEL ZN4728 D (IS=.597F RS=.659 N=1 BV=3.251 IBV=76M
+ CJO=363P VJ=.75 M=.33 TT=50.1N)
* Motorola 3.3 Volt  1 Watt  Zener Diode  06-15-1993
**********
*SRC=1N4729;ZN4729;Diodes;Zener <=10V;3.6V 1W
.MODEL ZN4729 D (IS=.581F RS=.624 N=1 BV=3.558 IBV=69M
+ CJO=319P VJ=.75 M=.33 TT=50.1N)
* Motorola 3.6 Volt  1 Watt  Zener Diode  06-15-1993
**********
*SRC=1N4730;ZN4730;Diodes;Zener <=10V;3.9V 1W
.MODEL ZN4730 D (IS=.663F RS=.795 N=1 BV=3.851 IBV=64M
+ CJO=283P VJ=.75 M=.33 TT=50.1N)
* Motorola 3.9 Volt  1 Watt  Zener Diode  06-15-1993
**********
*SRC=1N4731;ZN4731;Diodes;Zener <=10V;4.3V 1W
.MODEL ZN4731 D (IS=.642F RS=.753 N=1 BV=4.258 IBV=58M
+ CJO=244P VJ=.75 M=.33 TT=50.1N)
* Motorola 4.3 Volt  1 Watt  Zener Diode  06-15-1993
**********
*SRC=1N4732;ZN4732;Diodes;Zener <=10V;4.7V 1W
.MODEL ZN4732 D (IS=.671F RS=.811 N=1 BV=4.659 IBV=53M
+ CJO=214P VJ=.75 M=.33 TT=50.1N)
* Motorola 4.7 Volt  1 Watt  Zener Diode  06-15-1993
**********
*SRC=1N4733;ZN4733;Diodes;Zener <=10V;5.1V 1W
.MODEL ZN4733 D (IS=.703F RS=.871 N=1 BV=5.059 IBV=49M
+ CJO=189P VJ=.75 M=.33 TT=50.1N)
* Motorola 5.1 Volt  1 Watt  Zener Diode  06-15-1993
**********
*SRC=1N4734;ZN4734;Diodes;Zener <=10V;5.6V 1W
.MODEL ZN4734 D (IS=.732F RS=.924 N=1 BV=5.561 IBV=45M
+ CJO=164P VJ=.75 M=.33 TT=50.1N)
* Motorola 5.6 Volt  1 Watt  Zener Diode  06-15-1993
**********
*SRC=1N4735;ZN4735;Diodes;Zener <=10V;6.2V 1W
.MODEL ZN4735 D (IS=.757F RS=.968 N=1 BV=6.163 IBV=41M
+ CJO=141P VJ=.75 M=.33 TT=50.1N)
* Motorola 6.2 Volt  1 Watt  Zener Diode  06-15-1993
**********
*SRC=1N4736;ZN4736;Diodes;Zener <=10V;6.8V 1W
.MODEL ZN4736 D (IS=.776F RS=1 N=1 BV=6.766 IBV=37M
+ CJO=123P VJ=.75 M=.33 TT=50.1N)
* Motorola 6.8 Volt  1 Watt  Zener Diode  06-15-1993
**********
*SRC=1N4737;ZN4737;Diodes;Zener <=10V;7.5V 1W
.MODEL ZN4737 D (IS=.933F RS=1.23 N=1 BV=7.461 IBV=34M
+ CJO=106P VJ=.75 M=.33 TT=50.1N)
* Motorola 7.5 Volt  1 Watt  Zener Diode  06-15-1993
**********
*SRC=1N4738;ZN4738;Diodes;Zener <=10V;8.2V 1W
.MODEL ZN4738 D (IS=1.06F RS=1.41 N=1 BV=8.160 IBV=31M
+ CJO=92.8P VJ=.75 M=.33 TT=50.1N)
* Motorola 8.2 Volt  1 Watt  Zener Diode  06-15-1993
**********
*SRC=1N4739;ZN4739;Diodes;Zener <=10V;9.1V 1W
.MODEL ZN4739 D (IS=1.46F RS=1.82 N=1 BV=9.053 IBV=28M
+ CJO=79.4P VJ=.75 M=.33 TT=50.1N)
* Motorola 9.1 Volt  1 Watt  Zener Diode  06-15-1993
**********
*SRC=1N4740;ZN4740;Diodes;Zener <=10V;10V 1W
.MODEL ZN4740 D (IS=2.91F RS=2.71 N=1 BV=9.937 IBV=25M
+ CJO=68.9P VJ=.75 M=.33 TT=50.1N)
* Motorola 10 Volt  1 Watt  Zener Diode  06-15-1993
**********
*SRC=1N4741;ZN4741;Diodes;Zener 10V-50V;11V 1W
.MODEL ZN4741 D (IS=7.14F RS=3.87 N=1 BV=10.91 IBV=23M
+ CJO=101P VJ=1 M=.33 TT=50.1N)
* Motorola 11 Volt  1 Watt  Zener Diode  06-15-1993
**********
*SRC=1N4742;ZN4742;Diodes;Zener 10V-50V;12V 1W
.MODEL ZN4742 D (IS=9.67F RS=4.26 N=1 BV=11.91 IBV=21M
+ CJO=94.2P VJ=1 M=.33 TT=50.1N)
* Motorola 12 Volt  1 Watt  Zener Diode  06-15-1993
**********
*SRC=1N4743;ZN4743;Diodes;Zener 10V-50V;13V 1W
.MODEL ZN4743 D (IS=12.8F RS=4.63 N=1 BV=12.91 IBV=19M
+ CJO=88.1P VJ=1 M=.33 TT=50.1N)
* Motorola 13 Volt  1 Watt  Zener Diode  06-15-1993
**********
*SRC=1N4744;ZN4744;Diodes;Zener 10V-50V;15V 1W
.MODEL ZN4744 D (IS=53.2F RS=6.47 N=1 BV=14.89 IBV=17M
+ CJO=78.3P VJ=1 M=.33 TT=50.1N)
* Motorola 15 Volt  1 Watt  Zener Diode  06-15-1993
**********
*SRC=1N4745;ZN4745;Diodes;Zener 10V-50V;16V 1W
.MODEL ZN4745 D (IS=102F RS=7.33 N=1 BV=15.89 IBV=15.5M
+ CJO=74.4P VJ=1 M=.33 TT=50.1N)
* Motorola 16 Volt  1 Watt  Zener Diode  06-15-1993
**********
*SRC=1N4746;ZN4746;Diodes;Zener 10V-50V;18V 1W
.MODEL ZN4746 D (IS=419F RS=9.15 N=1 BV=17.88 IBV=14M
+ CJO=67.8P VJ=1 M=.33 TT=50.1N)
* Motorola 18 Volt  1 Watt  Zener Diode  06-15-1993
**********
*SRC=1N4747;ZN4747;Diodes;Zener 10V-50V;20V 1W
.MODEL ZN4747 D (IS=1.65P RS=10.9 N=1 BV=19.87 IBV=12.5M
+ CJO=62.5P VJ=1 M=.33 TT=50.1N)
* Motorola 20 Volt  1 Watt  Zener Diode  06-15-1993
**********
*SRC=1N4748;ZN4748;Diodes;Zener 10V-50V;22V 1W
.MODEL ZN4748 D (IS=3.11P RS=11.7 N=1 BV=21.87 IBV=11.5M
+ CJO=58.2P VJ=1 M=.33 TT=50.1N)
* Motorola 22 Volt  1 Watt  Zener Diode  06-15-1993
**********
*SRC=1N4749;ZN4749;Diodes;Zener 10V-50V;24V 1W
.MODEL ZN4749 D (IS=5.71P RS=12.5 N=1 BV=23.88 IBV=10.5M
+ CJO=54.6P VJ=1 M=.33 TT=50.1N)
* Motorola 24 Volt  1 Watt  Zener Diode  06-15-1993
**********
*SRC=1N4750;ZN4750;Diodes;Zener 10V-50V;27V 1W
.MODEL ZN4750 D (IS=222P RS=17.2 N=1 BV=26.84 IBV=9.5M
+ CJO=50.2P VJ=1 M=.33 TT=50.1N)
* Motorola 27 Volt  1 Watt  Zener Diode  06-15-1993
**********
*SRC=1N4751;ZN4751;Diodes;Zener 10V-50V;30V 1W
.MODEL ZN4751 D (IS=2.67N RS=21.9 N=1 BV=29.82 IBV=8.5M
+ CJO=46.6P VJ=1 M=.33 TT=50.1N)
* Motorola 30 Volt  1 Watt  Zener Diode  06-15-1993
**********
*SRC=1N4752;ZN4752;Diodes;Zener 10V-50V;33V 1W
.MODEL ZN4752 D (IS=2.67N RS=26.5 N=1 BV=32.81 IBV=7.5M
+ CJO=43.8P VJ=1 M=.33 TT=50.1N)
* Motorola 33 Volt  1 Watt  Zener Diode  06-15-1993
**********
*SRC=1N4753;ZN4753;Diodes;Zener 10V-50V;36V 1W
.MODEL ZN4753 D (IS=2.67N RS=31.3 N=1 BV=35.79 IBV=7M
+ CJO=41.4P VJ=1 M=.33 TT=50.1N)
* Motorola 36 Volt  1 Watt  Zener Diode  06-15-1993
**********
*SRC=1N4754;ZN4754;Diodes;Zener 10V-50V;39V 1W
.MODEL ZN4754 D (IS=2.67N RS=36 N=1 BV=38.78 IBV=6.5M
+ CJO=39.3P VJ=1 M=.33 TT=50.1N)
* Motorola 39 Volt  1 Watt  Zener Diode  06-15-1993
**********
*SRC=1N4755;ZN4755;Diodes;Zener 10V-50V;43V 1W
.MODEL ZN4755 D (IS=2.67N RS=40.7 N=1 BV=42.77 IBV=6M
+ CJO=37.1P VJ=1 M=.33 TT=50.1N)
* Motorola 43 Volt  1 Watt  Zener Diode  06-15-1993
**********
*SRC=1N4756;ZN4756;Diodes;Zener 10V-50V;47V 1W
.MODEL ZN4756 D (IS=2.67N RS=50.3 N=1 BV=46.74 IBV=5.5M
+ CJO=35.2P VJ=1 M=.33 TT=50.1N)
* Motorola 47 Volt  1 Watt  Zener Diode  06-15-1993
**********
*SRC=1N4757;ZN4757;Diodes;Zener >50V;51V 1W
.MODEL ZN4757 D (IS=2.67N RS=59.8 N=1 BV=50.72 IBV=5M
+ CJO=33.6P VJ=1 M=.33 TT=50.1N)
* Motorola 51 Volt  1 Watt  Zener Diode  06-15-1993
**********
*SRC=1N4758;ZN4758;Diodes;Zener >50V;56V 1W
.MODEL ZN4758 D (IS=2.67N RS=69.2 N=1 BV=55.71 IBV=4.5M
+ CJO=31.9P VJ=1 M=.33 TT=50.1N)
* Motorola 56 Volt  1 Watt  Zener Diode  06-15-1993
**********
*SRC=1N4759;ZN4759;Diodes;Zener >50V;62V 1W
.MODEL ZN4759 D (IS=2.67N RS=78.5 N=1 BV=61.71 IBV=4M
+ CJO=30.3P VJ=1 M=.33 TT=50.1N)
* Motorola 62 Volt  1 Watt  Zener Diode  06-15-1993
**********
*SRC=1N4760;ZN4760;Diodes;Zener >50V;68V 1W
.MODEL ZN4760 D (IS=2.67N RS=93 N=1 BV=67.68 IBV=3.7M
+ CJO=28.9P VJ=1 M=.33 TT=50.1N)
* Motorola 68 Volt  1 Watt  Zener Diode  06-15-1993
**********
*SRC=1N4761;ZN4761;Diodes;Zener >50V;75V 1W
.MODEL ZN4761 D (IS=2.67N RS=117 N=1 BV=74.65 IBV=3.3M
+ CJO=27.6P VJ=1 M=.33 TT=50.1N)
* Motorola 75 Volt  1 Watt  Zener Diode  06-15-1993
**********
*SRC=1N4762;ZN4762;Diodes;Zener >50V;82V 1W
.MODEL ZN4762 D (IS=2.67N RS=141 N=1 BV=81.61 IBV=3M
+ CJO=26.5P VJ=1 M=.33 TT=50.1N)
* Motorola 82 Volt  1 Watt  Zener Diode  06-15-1993
**********
*SRC=1N4763;ZN4763;Diodes;Zener >50V;91V 1W
.MODEL ZN4763 D (IS=2.67N RS=190 N=1 BV=90.51 IBV=2.8M
+ CJO=25.4P VJ=1 M=.33 TT=50.1N)
* Motorola 91 Volt  1 Watt  Zener Diode  06-15-1993
**********
*SRC=1N4764;ZN4764;Diodes;Zener >50V;100V 1W
.MODEL ZN4764 D (IS=2.67N RS=289 N=1 BV=99.32 IBV=2.5M
+ CJO=24.5P VJ=1 M=.33 TT=50.1N)
* Motorola 100 Volt  1 Watt  Zener Diode  06-15-1993
**********
*SRC=1N6282;ZN6282;Diodes;Zener 10V-50V;30V 5W
.MODEL ZN6282 D (IS=1.51N RS=20M N=1 BV=30.01 IBV=1M
+ CJO=6.5N VJ=1 M=.33 TT=50.1N)
* Motorola 30 Volt  5 Watt  Zener Diode  12-23-1992
* Equivalent to the 1.5KE30
**********
*SRC=1N821;DN821;Diodes;Zener <=10V;6.2V .4W
.MODEL DN821 D (IS=19F RS=11.5 N=1 BV=6.116 IBV=7.5M
+ CJO=46.5P VJ=.75 M=.33 TT=50.1N)
* Motorola 6.2 Volt  .4 Watt  Zener Diode  02-05-1993
**********
*SRC=1N823;DN823;Diodes;Zener <=10V;6.2V .4W
.MODEL DN823 D (IS=25.9F RS=12.5 N=1 BV=6.108 IBV=7.5M
+ CJO=50P VJ=.75 M=.33 TT=54.1N)
* Motorola 6.2 Volt  .4 Watt  Zener Diode  02-05-1993
**********
*SRC=1N827;DN827;Diodes;Zener <=10V;6.2V .4W
.MODEL DN827 D (IS=19F RS=11.5 N=1 BV=6.116 IBV=7.5M
+ CJO=93P VJ=.75 M=.33 TT=60.1N)
* Motorola 6.2 Volt  .4 Watt  Zener Diode  02-05-1993
**********
*SRC=1N829;DN829;Diodes;Zener <=10V;6.2V .4W
.MODEL DN829 D (IS=22.2F RS=12 N=1 BV=6.112 IBV=7.5M
+ CJO=100P VJ=.75 M=.33 TT=61.1N)
* Motorola 6.2 Volt  .4 Watt  Zener Diode  02-05-1993
**********
*SRC=1N829A;DN829A;Diodes;Zener <=10V;6.2V .4W
.MODEL DN829A D (IS=5.54F RS=7.55 N=1 BV=6.146 IBV=7.5M
+ CJO=110P VJ=.75 M=.33 TT=50.1N)
* Motorola 6.2 Volt  .4 Watt  Zener Diode  02-05-1993
**********
*SRC=1N827A;DN827A;Diodes;Zener <=10V;6.2V .4W
.MODEL DN827A D (IS=4.07F RS=6.54 N=1 BV=6.153 IBV=7.5M
+ CJO=100P VJ=.75 M=.33 TT=55.1N)
* Motorola 6.2 Volt  .4 Watt  Zener Diode  02-05-1993
**********
*SRC=1N825A;DN825A;Diodes;Zener <=10V;6.2V .4W
.MODEL DN825A D (IS=3.49F RS=6.04 N=1 BV=6.157 IBV=7.5M
+ CJO=60P VJ=.75 M=.33 TT=50.1N)
* Motorola 6.2 Volt  .4 Watt  Zener Diode  02-05-1993
**********
*SRC=1N823A;DN823A;Diodes;Zener <=10V;6.2V .4W
.MODEL DN823A D (IS=3.82F RS=6.34 N=1 BV=6.155 IBV=7.5M
+ CJO=57P VJ=.75 M=.33 TT=45.1N)
* Motorola 6.2 Volt  .4 Watt  Zener Diode  02-05-1993
**********
*SRC=1N821A;DN821A;Diodes;Zener <=10V;6.2V .4W
.MODEL DN821A D (IS=4.07F RS=6.54 N=1 BV=6.153 IBV=7.5M
+ CJO=53P VJ=.75 M=.33 TT=40.1N)
* Motorola 6.2 Volt  .4 Watt  Zener Diode  02-05-1993
**********
*SRC=1N935;DN935;Diodes;Zener <=10V;9V .5W
.MODEL DN935 D (IS=400F RS=16.5 N=1 BV=8.880 IBV=7.5M
+ CJO=40.3P VJ=.75 M=.33 TT=20.1N)
* Motorola 9 Volt  .5 Watt  Zener Diode  02-05-1993
**********
*SRC=1N936;DN936;Diodes;Zener <=10V;9V .5W
.MODEL DN936 D (IS=416F RS=16.6 N=1 BV=8.879 IBV=7.5M
+ CJO=45P VJ=.75 M=.33 TT=32.1N)
* Motorola 9 Volt  .5 Watt  Zener Diode  02-05-1993
**********
*SRC=1N937;DN937;Diodes;Zener <=10V;9V .5W
.MODEL DN937 D (IS=370F RS=16.3 N=1 BV=8.881 IBV=7.5M
+ CJO=50P VJ=.75 M=.33 TT=30.1N)
* Motorola 9 Volt  .5 Watt  Zener Diode  02-05-1993
**********
*SRC=1N938;DN938;Diodes;Zener <=10V;9V .5W
.MODEL DN938 D (IS=400F RS=16.5 N=1 BV=8.880 IBV=7.5M
+ CJO=60P VJ=.75 M=.33 TT=44.1N)
* Motorola 9 Volt  .5 Watt  Zener Diode  02-05-1993
**********
*SRC=1N939;DN939;Diodes;Zener <=10V;9V .5W
.MODEL DN939 D (IS=400F RS=16.5 N=1 BV=8.880 IBV=7.5M
+ CJO=67P VJ=.75 M=.33 TT=50.1N)
* Motorola 9 Volt  .5 Watt  Zener Diode  02-05-1993
**********
*SRC=1N935A;DN935A;Diodes;Zener <=10V;9V .5W
.MODEL DN935A D (IS=432F RS=16.7 N=1 BV=8.878 IBV=7.5M
+ CJO=10P VJ=.75 M=.33 TT=23.1N)
* Motorola 9 Volt  .5 Watt  Zener Diode  02-05-1993
**********
*SRC=1N936A;DN936A;Diodes;Zener <=10V;9V .5W
.MODEL DN936A D (IS=424F RS=16.7 N=1 BV=8.879 IBV=7.5M
+ CJO=20P VJ=.75 M=.33 TT=20.1N)
* Motorola 9 Volt  .5 Watt  Zener Diode  02-05-1993
**********
*SRC=1N937A;DN937A;Diodes;Zener <=10V;9V .5W
.MODEL DN937A D (IS=424F RS=16.7 N=1 BV=8.879 IBV=7.5M
+ CJO=20P VJ=.75 M=.33 TT=35.1N)
* Motorola 9 Volt  .5 Watt  Zener Diode  02-05-1993
**********
*SRC=1N938A;DN938A;Diodes;Zener <=10V;9V .5W
.MODEL DN938A D (IS=356F RS=16.2 N=1 BV=8.882 IBV=7.5M
+ CJO=35P VJ=.75 M=.33 TT=40.1N)
* Motorola 9 Volt  .5 Watt  Zener Diode  02-05-1993
**********
*SRC=1N939A;DN939A;Diodes;Zener <=10V;9V .5W
.MODEL DN939A D (IS=400F RS=16.5 N=1 BV=8.880 IBV=7.5M
+ CJO=44P VJ=.75 M=.33 TT=55.1N)
* Motorola 9 Volt  .5 Watt  Zener Diode  02-05-1993
**********
*SRC=1N935B;DN935B;Diodes;Zener <=10V;9V .5W
.MODEL DN935B D (IS=400F RS=16.5 N=1 BV=8.880 IBV=7.5M
+ CJO=15P VJ=.75 M=.33 TT=14.1N)
* Motorola 9 Volt  .5 Watt  Zener Diode  02-05-1993
**********
*SRC=1N936B;DN936B;Diodes;Zener <=10V;9V .5W
.MODEL DN936B D (IS=385F RS=16.4 N=1 BV=8.881 IBV=7.5M
+ CJO=20P VJ=.75 M=.33 TT=24.1N)
* Motorola 9 Volt  .5 Watt  Zener Diode  02-05-1993
**********
*SRC=1N937B;DN937B;Diodes;Zener <=10V;9V .5W
.MODEL DN937B D (IS=408F RS=16.6 N=1 BV=8.879 IBV=7.5M
+ CJO=22P VJ=.75 M=.33 TT=36.1N)
* Motorola 9 Volt  .5 Watt  Zener Diode  02-05-1993
**********
*SRC=1N938B;DN938B;Diodes;Zener <=10V;9V .5W
.MODEL DN938B D (IS=589F RS=17.5 N=1 BV=8.872 IBV=7.5M
+ CJO=30P VJ=.75 M=.33 TT=50.1N)
* Motorola 9 Volt  .5 Watt  Zener Diode  02-05-1993
**********
*SRC=1N939B;DN939B;Diodes;Zener <=10V;9V .5W
.MODEL DN939B D (IS=400F RS=16.5 N=1 BV=8.880 IBV=7.5M
+ CJO=89P VJ=.75 M=.33 TT=56.1N)
* Motorola 9 Volt  .5 Watt  Zener Diode  02-05-1993
**********
*SRC=1N5525B;ZN5525B;Diodes;Zener 10V-50V;6.2V .4W
.MODEL ZN5525B D (IS=1.91F RS=4.1 N=1 BV=6.198 IBV=1M
+ CJO=56.5P VJ=.75 M=.33 TT=50.1N)
* Motorola 6.2 Volt  .4 Watt  Zener Diode  12-11-1995
**********
*SRC=1N5526B;ZN5526B;Diodes;Zener 10V-50V;6.8V .4W
.MODEL ZN5526B D (IS=1.91F RS=4.1 N=1 BV=6.799 IBV=1M
+ CJO=49.2P VJ=.75 M=.33 TT=50.1N)
* Motorola 6.8 Volt  .4 Watt  Zener Diode  12-11-1995
**********
*SRC=1N5533B;ZN5533B;Diodes;Zener 10V-50V;13V .4W
.MODEL ZN5533B D (IS=2.07N RS=64.1 N=1 BV=12.94 IBV=1M
+ CJO=44.2P VJ=1 M=.33 TT=50.1N)
* Motorola 13 Volt  .4 Watt  Zener Diode  12-11-1995
**********
* SGS Thomson Zener Diodes
**********
*SRC=1N5333A;DN5333A;Diodes;Zener <=10V;3.3V 5W
.MODEL DN5333A D (IS=22.5F RS=2.93 N=1 BV=2.186 IBV=.38