**********
* Copyright Intusoft 1993-1997
* All Rights Reserved
**********
**********
*SRC=MV2101;MV2101;Diodes;Varactors;CT=6.8P @ 4V
*HELP issyntax.hlp "Varactor Diodes"
.MODEL MV2101 D(M=.447 VJ=3.69 CJO=11.24P BV=43.33 IBV=10N)
* Motorola  CT=6.8P @ 4V Si Varactor Diode
**********
*SRC=MV2103;MV2103;Diodes;Varactors;CT=10P @ 4V
*HELP issyntax.hlp "Varactor Diodes"
.MODEL MV2103 D(M=.444 VJ=3.64 CJO=11.35P BV=43.33 IBV=10N)
* Motorola  CT=10P @ 4V Si Varactor Diode
**********
*SRC=MV2104;MV2104;Diodes;Varactors;CT=12P @ 4V
*HELP issyntax.hlp "Varactor Diodes"
.MODEL MV2104 D(M=.441 VJ=3.58 CJO=11.35P BV=43.33 IBV=10N)
* Motorola  CT=12P @ 4V Si Varactor Diode
**********
*SRC=MV2105;MV2105;Diodes;Varactors;CT=15P @ 4V
*HELP issyntax.hlp "Varactor Diodes"
.MODEL MV2105 D(M=.47 VJ=1.1 CJO=41.00P BV=43.33 IBV=10N)
* Motorola  CT=15P @ 4V Si Varactor Diode
**********
*SRC=MV2107;MV2107;Diodes;Varactors;CT=22P @ 4V
*HELP issyntax.hlp "Varactor Diodes"
.MODEL MV2107 D(M=.434 VJ=3.47 CJO=11.35P BV=43.33 IBV=10N)
* Motorola  CT=22P @ 4V Si Varactor Diode
**********
*SRC=MV2108;MV2108;Diodes;Varactors;CT=27P @ 4V
*HELP issyntax.hlp "Varactor Diodes"
.MODEL MV2108 D(M=.431 VJ=3.42 CJO=11.35P BV=43.33 IBV=10N)
* Motorola  CT=27P @ 4V Si Varactor Diode
**********
*SRC=MV2109;MV2109;Diodes;Varactors;CT=33P @ 4V
*HELP issyntax.hlp "Varactor Diodes"
.MODEL MV2109 D(M=.427 VJ=3.38 CJO=11.35P BV=43.33 IBV=10N)
* Motorola  CT=33P @ 4V Si Varactor Diode
**********
*SRC=MV2111;MV2111;Diodes;Varactors;CT=47P @ 4V
*HELP issyntax.hlp "Varactor Diodes"
.MODEL MV2111 D(M=.424 VJ=3.33 CJO=11.35P BV=43.33 IBV=10N)
* Motorola  CT=47P @ 4V Si Varactor Diode
**********
*SRC=MV2113;MV2113;Diodes;Varactors;CT=68P @ 4V
*HELP issyntax.hlp "Varactor Diodes"
.MODEL MV2113 D(M=.420 VJ=3.28 CJO=11.35P BV=43.33 IBV=10N)
* Motorola  CT=68P @ 4V Si Varactor Diode
**********
*SRC=MV2114;MV2114;Diodes;Varactors;CT=82P @ 4V
*HELP issyntax.hlp "Varactor Diodes"
.MODEL MV2114 D(M=.416 VJ=3.21 CJO=11.35P BV=43.33 IBV=10N)
* Motorola  CT=82P @ 4V Si Varactor Diode
**********
*SRC=MV2115;MV2115;Diodes;Varactors;CT=100P @ 4V
*HELP issyntax.hlp "Varactor Diodes"
.MODEL MV2115 D(M=.412 VJ=3.14 CJO=131.5P BV=43.33 IBV=10N)
* Motorola  CT=100P @ 4V Si Varactor Diode
**********
*SRC=1R5BZ41;DR5BZ41;Diodes;Rectifier <=5A;100V 1.5A
.MODEL DR5BZ41 D (IS=4N RS=42M N=1.75 BV=100 IBV=20U
+ CJO=63P VJ=.75 M=.333 TT=150N)
* Toshiba 100 Volt  1.5 Amp  100M us  Si Diode  11-09-1993
**********
*SRC=1R5BZ61;DR5BZ61;Diodes;Rectifier <=5A;100V 1.5A
.MODEL DR5BZ61 D (IS=227P RS=42M N=1.5 BV=100 IBV=10U
+ CJO=63P VJ=.75 M=.333 TT=150N)
* Toshiba 100 Volt  1.5 Amp  100M us  Si Diode  11-09-1993
**********
*SRC=1R5CL41;DR5CL41;Diodes;Rectifier <=5A;150V 1.5A
.MODEL DR5CL41 D (IS=4N RS=42M N=1.75 BV=150 IBV=100U
+ CJO=63P VJ=.75 M=.333 TT=86.4N)
* Toshiba 150 Volt  1.5 Amp  60M us  Si Diode  11-09-1993
**********
*SRC=1R5DL41;DR5DL41;Diodes;Rectifier <=5A;200V 1.5A
.MODEL DR5DL41 D (IS=4N RS=42M N=1.75 BV=200 IBV=100U
+ CJO=63P VJ=.75 M=.333 
* Toshiba 200 Volt  1.5 Amp  60M us  Si Diode  11-09-1993
**********
*SRC=1R5DL41A;DR5DL41A;Diodes;Rectifier <=5A;200V 1.5A
.MODEL DR5DL41A D (IS=4N RS=42M N=1.75 BV=200 IBV=100U
+ CJO=63P VJ=.75 M=.333 TT=43.2N)
* Toshiba 200 Volt  1.5 Amp  30M us  Si Diode  11-09-1993
**********
*SRC=1R5DU41;DR5DU41;Diodes;Rectifier <=5A;200V 1.5A
.MODEL DR5DU41 D (IS=1.73N RS=42M N=1.67 BV=200 IBV=50U
+ CJO=63P VJ=.75 M=.333 TT=144N)
* Toshiba 200 Volt  1.5 Amp  .1 us  Si Diode  11-09-1993
**********
*SRC=1R5DZ41;DR5DZ41;Diodes;Rectifier <=5A;200V 1.5A
.MODEL DR5DZ41 D (IS=4N RS=42M N=1.75 BV=200 IBV=35U
+ CJO=63P VJ=.75 M=.333 TT=144U)
* Toshiba 200 Volt  1.5 Amp  100 us  Si Diode  11-09-1993
**********
*SRC=1R5DZ61;DR5DZ61;Diodes;Rectifier <=5A;200V 1.5A
.MODEL DR5DZ61 D (IS=3.72N RS=20M N=1.75 BV=200 IBV=30U
+ CJO=63P VJ=.75 M=.333 TT=144N)
* Toshiba 200 Volt  1.5 Amp  .1 us  Si Diode  11-09-1993
**********
*SRC=1R5GH45;DR5GH45;Diodes;Rectifier <=5A;400V 1.5A
.MODEL DR5GH45 D (IS=1.64N RS=26.7M N=1.67 BV=400 IBV=100U
+ CJO=63P VJ=.75 M=.333 TT=288N)
* Toshiba 400 Volt  1.5 Amp  .2 us  Si Diode  11-09-1993
**********
*SRC=1R5GU41;DR5GU41;Diodes;Rectifier <=5A;400V 1.5A
.MODEL DR5GU41 D (IS=3.89N RS=33.5M N=1.75 BV=400 IBV=65U
+ CJO=63P VJ=.75 M=.333 TT=144N)
* Toshiba 400 Volt  1.5 Amp  .1 us  Si Diode  11-09-1993
**********
*SRC=1R5GZ41;DR5GZ41;Diodes;Rectifier <=5A;400V 1.5A
.MODEL DR5GZ41 D (IS=4N RS=42M N=1.75 BV=400 IBV=70U
+ CJO=63P VJ=.75 M=.333 TT=144N)
* Toshiba 400 Volt  1.5 Amp  .1 us  Si Diode  11-09-1993
**********
*SRC=1R5GZ61;DR5GZ61;Diodes;Rectifier <=5A;400V 1.5A
.MODEL DR5GZ61 D (IS=17.9P RS=42M N=1.34 BV=400 IBV=10U
+ CJO=63P VJ=.75 M=.333 TT=158N)
* Toshiba 400 Volt  1.5 Amp  .11 us  Si Diode  11-09-1993
**********
*SRC=1R5JH45;DR5JH45;Diodes;Rectifier <=5A;600V 1.5A
.MODEL DR5JH45 D (IS=4N RS=42M N=1.75 BV=600 IBV=100U
+ CJO=63P VJ=.75 M=.333 TT=288N)
* Toshiba 600 Volt  1.5 Amp  .2 us  Si Diode  11-09-1993
**********
*SRC=1R5JZ41;DR5JZ41;Diodes;Rectifier <=5A;600V 1.5A
.MODEL DR5JZ41 D (IS=4N RS=42M N=1.75 BV=600 IBV=100U
+ CJO=63P VJ=.75 M=.333 TT=144N)
* Toshiba 600 Volt  1.5 Amp  .1 us  Si Diode  11-09-1993
**********
*SRC=1R5JZ61;DR5JZ61;Diodes;Rectifier <=5A;600V 1.5A
.MODEL DR5JZ61 D (IS=4N RS=42M N=1.75 BV=600 IBV=100U
+ CJO=63P VJ=.75 M=.333 TT=136N)
* Toshiba 600 Volt  1.5 Amp  95M us  Si Diode  11-09-1993
**********
*SRC=1R5LZ41;DR5LZ41;Diodes;Rectifier <=5A;800V 1.5A
.MODEL DR5LZ41 D (IS=4N RS=42M N=1.75 BV=800 IBV=130U
+ CJO=63P VJ=.75 M=.333 TT=216N)
* Toshiba 800 Volt  1.5 Amp  .15 us  Si Diode  11-09-1993
**********
*SRC=1R5NH45;DR5NH45;Diodes;Rectifier <=5A;1000V 1.5A
.MODEL DR5NH45 D (IS=1.76N RS=46.9M N=1.67 BV=1K IBV=100U
+ CJO=63P VJ=.75 M=.333 TT=288N)
* Toshiba 1000 Volt  1.5 Amp  .2 us  Si Diode  11-09-1993
**********
*SRC=1R5NU41;DR5NU41;Diodes;Rectifier <=5A;1000V 1.5A
.MODEL DR5NU41 D (IS=18.9P RS=53.7M N=1.34 BV=1K IBV=100U
+ CJO=63P VJ=.75 M=.333 TT=144N)
* Toshiba 1000 Volt  1.5 Amp  .1 us  Si Diode  11-09-1993
**********
*SRC=1R5NZ41;DR5NZ41;Diodes;Rectifier <=5A;1000V 1.5A
.MODEL DR5NZ41 D (IS=4N RS=42M N=1.75 BV=1K IBV=160U
+ CJO=63P VJ=.75 M=.333 TT=144N)
* Toshiba 1000 Volt  1.5 Amp  .1 us  Si Diode  11-09-1993
**********
*SRC=1R5TH61;DR5TH61;Diodes;Rectifier <=5A;1500V 1.5A
.MODEL DR5TH61 D (IS=2.55N RS=42M N=1.75 BV=1.5K IBV=150U
+ CJO=42.4P VJ=.75 M=.333 TT=14.4U)
* Toshiba 1500 Volt  1 Amp  10 us  Si Diode  11-09-1993
**********
*SRC=1S310;DS310;Diodes;Rectifier <=5A;50V 0.5A
.MODEL DS310 D (IS=18.4N RS=42M N=1.75 BV=50 IBV=40U
+ CJO=206P VJ=.75 M=.333 TT=576N)
* Hitachi 50 Volt  0.5 Amp  .4 us  Si Diode  11-09-1993
**********
*SRC=1S311;DS311;Diodes;Rectifier <=5A;100V 0.5A
.MODEL DS311 D (IS=18.4N RS=42M N=1.75 BV=100 IBV=75U
+ CJO=206P VJ=.75 M=.333 TT=576N)
* Hitachi 100 Volt  0.5 Amp  .4 us  Si Diode  11-09-1993
**********
*SRC=1S312;DS312;Diodes;Rectifier <=5A;200V 0.5A
.MODEL DS312 D (IS=18.4N RS=42M N=1.75 BV=200 IBV=150U
+ CJO=206P VJ=.75 M=.333 TT=475N)
* Hitachi 200 Volt  0.5 Amp  .33 us  Si Diode  11-09-1993
**********
*SRC=1S313;DS313;Diodes;Rectifier <=5A;300V 0.5A
.MODEL DS313 D (IS=18.4N RS=42M N=1.75 BV=300 IBV=220U
+ CJO=206P VJ=.75 M=.333 TT=561N)
* Hitachi 300 Volt  0.5 Amp  .39 us  Si Diode  11-09-1993
**********
*SRC=1S314;DS314;Diodes;Rectifier <=5A;400V 0.5A
.MODEL DS314 D (IS=18.4N RS=42M N=1.75 BV=400 IBV=290U
+ CJO=206P VJ=.75 M=.333 TT=720N)
* Hitachi 400 Volt  0.5 Amp  .5 us  Si Diode  11-09-1993
**********
*SRC=1S315;DS315;Diodes;Rectifier <=5A;500V 0.5A
.MODEL DS315 D (IS=18.4N RS=42M N=1.75 BV=500 IBV=360U
+ CJO=206P VJ=.75 M=.333 TT=648N)
* Hitachi 500 Volt  0.5 Amp  .45 us  Si Diode  11-09-1993
**********
*SRC=1S316;DS316;Diodes;Rectifier <=5A;800V 0.45A
.MODEL DS316 D (IS=18.4N RS=42M N=1.75 BV=800 IBV=570U
+ CJO=206P VJ=.75 M=.333 TT=720N)
* Hitachi 800 Volt  0.45 Amp  .5 us  Si Diode  11-09-1993
**********
*SRC=1S317;DS317;Diodes;Rectifier <=5A;1000V 0.45A
.MODEL DS317 D (IS=18.4N RS=42M N=1.75 BV=1K IBV=720U
+ CJO=206P VJ=.75 M=.333 TT=1.29U)
* Hitachi 1000 Volt  0.45 Amp  .9 us  Si Diode  11-09-1993
**********
*SRC=1S812;DS812;Diodes;Rectifier <=5A;400V 0.5A
.MODEL DS812 D (IS=5.59N RS=50M N=1.85 BV=400 IBV=90U
+ CJO=83.5P VJ=.75 M=.333 TT=1.44U)
* Fujidenki 400 Volt  0.5 Amp  1 us  Si Diode  11-11-1993
**********
*SRC=1S813;DS813;Diodes;Rectifier <=5A;800V 0.5A
.MODEL DS813 D (IS=5.59N RS=52M N=1.84 BV=800 IBV=180U
+ CJO=83.5P VJ=.75 M=.333 TT=1.44U)
* Fujidenki 800 Volt  0.5 Amp  1 us  Si Diode  11-11-1993
**********
*SRC=1S814;DS814;Diodes;Rectifier <=5A;1000V 0.5A
.MODEL DS814 D (IS=5.59N RS=49M N=1.86 BV=1K IBV=220U
+ CJO=83.5P VJ=.75 M=.333 TT=2.88U)
* Fujidenki 1000 Volt  0.5 Amp  2 us  Si Diode  11-11-1993
**********
*SRC=1S815;DS815;Diodes;Rectifier <=5A;1200V 0.5A
.MODEL DS815 D (IS=5.59N RS=48M N=1.85 BV=1.2K IBV=260U
+ CJO=83.5P VJ=.75 M=.333 TT=5.04U)
* Fujidenki 1200 Volt  0.5 Amp  3.5 us  Si Diode  11-11-1993
**********
*SRC=1S822;DS822;Diodes;Rectifier <=5A;400V 2.5A
.MODEL DS822 D (IS=5.59N RS=25M N=1.7 BV=400 IBV=2M
+ CJO=83.5P VJ=.75 M=.333 TT=1.44U)
* Fujidenki 400 Volt  2.5 Amp  1 us  Si Diode  11-11-1993
**********
*SRC=1S823;DS823;Diodes;Rectifier <=5A;800V 2.5A
.MODEL DS823 D (IS=5.59N RS=20M N=1.7 BV=800 IBV=2M
+ CJO=83.5P VJ=.75 M=.333 TT=1.44U)
* Fujidenki 800 Volt  2.5 Amp  1 us  Si Diode  11-11-1993
**********
*SRC=1S824;DS824;Diodes;Rectifier <=5A;1000V 2.5A
.MODEL DS824 D (IS=5.59N RS=20M N=1.70 BV=1000 IBV=2M
+ CJO=83.5P VJ=.75 M=.333 TT=1.44U)
* Fujidenki 1000 Volt  2.5 Amp  1 us  Si Diode  11-11-1993
**********
*SRC=1S825;DS825;Diodes;Rectifier <=5A;1200V 2.5A
.MODEL DS825 D (IS=5.59N RS=20M N=1.70 BV=1.2K IBV=2M
+ CJO=83.5P VJ=.75 M=.333 TT=1.44U)
* Fujidenki 1200 Volt  2.5 Amp  1 us  Si Diode  11-11-1993
**********
*SRC=1FWJ42;DFWJ42;Diodes;Schottky;30V 1A
.MODEL DFWJ42 D (IS=9.55N RS=32M N=1.05 BV=30 IBV=500U
+ CJO=42.4P VJ=.75 M=.333 TT=55.4N EG=0.69 XTI=2)
* Toshiba 30 Volt  1 Amp  35M us  Si Diode  11-16-1993
**********
*SRC=1FWJ43;DFWJ43;Diodes;Schottky;30V 1A
.MODEL DFWJ43 D (IS=9.55N RS=40M N=1.05 BV=30 IBV=500U
+ CJO=42.4P VJ=.75 M=.333 TT=50.4N EG=0.69 XTI=2)
* Toshiba 30 Volt  1 Amp  35M us  Si Diode  11-16-1993
**********
*SRC=1FWJ44;DFWJ44;Diodes;Schottky;40V 1A
.MODEL DFWJ44 D (IS=9.55N RS=35M N=1.05 BV=40 IBV=500U
+ CJO=62.3P VJ=.75 M=.333 TT=50.4N EG=0.69 XTI=2)
* Toshiba 40 Volt  1 Amp  35M us  Si Diode  11-16-1993
**********
*SRC=1GWJ42;DGWJ42;Diodes;Schottky;40V 1A
.MODEL DGWJ42 D (IS=9.55N RS=32M N=1.05 BV=40 IBV=500U
+ CJO=46.4P VJ=.75 M=.333 TT=50.4N EG=0.69 XTI=2)
* Toshiba 40 Volt  1 Amp  35M us  Si Diode  11-16-1993
**********
*SRC=1GWJ43;DGWJ43;Diodes;Schottky;40V 1A
.MODEL DGWJ43 D (IS=9.55N RS=33M N=1.05 BV=40 IBV=500U
+ CJO=53P VJ=.75 M=.333 TT=50.4N EG=0.69 XTI=2)
* Toshiba 40 Volt  1 Amp  35M us  Si Diode  11-16-1993
**********
*SRC=5KQ30;D5KQ30;Diodes;Schottky;30V 5A
.MODEL D5KQ30 D (IS=263.4N RS=25M N=1.01 BV=30 IBV=5M
+ CJO=206P VJ=.75 M=.333 TT=72N EG=0.69 XTI=2)
* Nippon Inta 30 Volt  5 Amp  50M us  Si Diode  11-16-1993
**********
*SRC=5KQ40;D5KQ40;Diodes;Schottky;40V 5A
.MODEL D5KQ40 D (IS=263.4N RS=25M N=1.01 BV=40 IBV=5M
+ CJO=206P VJ=.75 M=.333 TT=72N EG=0.69 XTI=2)
* Nippon Inta 40 Volt  5 Amp  50M us  Si Diode  11-16-1993
**********
*SRC=5KQ50;D5KQ50;Diodes;Schottky;50V 5A
.MODEL D5KQ50 D (IS=183.4N RS=28M N=1.01 BV=50 IBV=5M
+ CJO=206P VJ=.75 M=.333 TT=72N EG=0.69 XTI=2)
* Nippon Inta 50 Volt  5 Amp  50M us  Si Diode  11-16-1993
**********
*SRC=5KQ60;D5KQ60;Diodes;Schottky;60V 5A
.MODEL D5KQ60 D (IS=183.4N RS=28M N=1.01 BV=60 IBV=5M
+ CJO=206P VJ=.75 M=.333 TT=72N EG=0.69 XTI=2)
* Nippon Inta 60 Volt  5 Amp  50M us  Si Diode  11-16-1993
**********
*SRC=5KQ90;D5KQ90;Diodes;Schottky;90V 5A
.MODEL D5KQ90 D (IS=88.4N RS=50M N=1.22 BV=90 IBV=1M
+ CJO=206P VJ=.75 M=.333 TT=93.6N EG=0.69 XTI=2)
* Nippon Inta 90 Volt  5 Amp  65M us  Si Diode  11-16-1993
**********
*SRC=5KQ100;D5KQ100;Diodes;Schottky;100V 5A
.MODEL D5KQ100 D (IS=88.4N RS=52M N=1.3 BV=100 IBV=1M
+ CJO=206P VJ=.75 M=.333 TT=93.6N EG=0.69 XTI=2)
* Nippon Inta 100 Volt  5 Amp  65M us  Si Diode  11-16-1993
**********
*SRC=10KQ30;D10KQ30;Diodes;Schottky;30V 10A
.MODEL D10KQ30 D (IS=338.5N RS=20M N=1.01 BV=30 IBV=10M
+ CJO=412P VJ=.75 M=.333 TT=144N EG=0.69 XTI=2)
* Nippon Inta 30 Volt  10 Amp  .1 us  Si Diode  11-16-1993
**********
*SRC=10KQ40;D10KQ40;Diodes;Schottky;40V 10A
.MODEL D10KQ40 D (IS=338.5N RS=20M N=1.01 BV=40 IBV=10M
+ CJO=412P VJ=.75 M=.333 TT=144N EG=0.69 XTI=2)
* Nippon Inta 40 Volt  10 Amp  .1 us  Si Diode  11-16-1993
**********
*SRC=10KQ50;D10KQ50;Diodes;Schottky;50V 10A
.MODEL D10KQ50 D (IS=288.5N RS=22M N=1.01 BV=50 IBV=10M
+ CJO=412P VJ=.75 M=.333 TT=144N EG=0.69 XTI=2)
* Nippon Inta 50 Volt  10 Amp  .1 us  Si Diode  11-16-1993
**********
*SRC=10KQ60;D10KQ60;Diodes;Schottky;60V 10A
.MODEL D10KQ60 D (IS=288.5N RS=22M N=1.01 BV=60 IBV=10M
+ CJO=412P VJ=.75 M=.333 TT=144N EG=0.69 XTI=2)
* Nippon Inta 60 Volt  10 Amp  .1 us  Si Diode  11-16-1993
**********
*SRC=10KQ90;D10KQ90;Diodes;Schottky;90V 10A
.MODEL D10KQ90 D (IS=158.5N RS=30M N=1.1 BV=90 IBV=2M
+ CJO=412P VJ=.75 M=.333 TT=144N EG=0.69 XTI=2)
* Nippon Inta 90 Volt  10 Amp  .1 us  Si Diode  11-16-1993
**********
*SRC=10KQ100;D10KQ100;Diodes;Schottky;100V 10A
.MODEL D10KQ100 D (IS=158.5N RS=35M N=1.15 BV=100 IBV=2M
+ CJO=412P VJ=.75 M=.333 TT=144N EG=0.69 XTI=2)
* Nippon Inta 100 Volt  10 Amp  .1 us  Si Diode  11-16-1993
**********
*SRC=02BZ2_2;Z02BZ2_2;Diodes;Zener <=10V;2.2V 250mW
.MODEL Z02BZ2_2 D (IS=45.4F RS=25.4 N=1 BV=1.946 IBV=10M
+ CJO=167P VJ=.75 M=.33 TT=50.1N)
* Toshiba 2.2 Volt  .25 Watt  Zener Diode  11-08-1993
**********
*SRC=02BZ2_7;Z02BZ2_7;Diodes;Zener <=10V;2.7V 250mW
.MODEL Z02BZ2_7 D (IS=45.4F RS=25.4 N=1 BV=2.447 IBV=10M
+ CJO=122P VJ=.75 M=.33 TT=50.1N)
* Toshiba 2.7 Volt  .25 Watt  Zener Diode  11-08-1993
**********
*SRC=02BZ3_3;Z02BZ3_3;Diodes;Zener <=10V;3.3V 250mW
.MODEL Z02BZ3_3 D (IS=45.4F RS=25.4 N=1 BV=3.047 IBV=10M
+ CJO=90.9P VJ=.75 M=.33 TT=50.1N)
* Toshiba 3.3 Volt  .25 Watt  Zener Diode  11-08-1993
**********
*SRC=02BZ3_9;Z02BZ3_9;Diodes;Zener <=10V;3.9V 250mW
.MODEL Z02BZ3_9 D (IS=45.4F RS=25.4 N=1 BV=3.647 IBV=10M
+ CJO=70.7P VJ=.75 M=.33 TT=50.1N)
* Toshiba 3.9 Volt  .25 Watt  Zener Diode  11-08-1993
**********
*SRC=02BZ4_7;Z02BZ4_7;Diodes;Zener <=10V;4.7V 250mW
.MODEL Z02BZ4_7 D (IS=175F RS=32.4 N=1 BV=4.378 IBV=10M
+ CJO=53.5P VJ=.75 M=.33 TT=50.1N)
* Toshiba 4.7 Volt  .25 Watt  Zener Diode  11-08-1993
**********
*SRC=02CZ2_0;Z02CZ2_0;Diodes;Zener <=10V;2.0V 200mW
.MODEL Z02CZ2_0 D (IS=28P RS=74.8 N=1 BV=1.626 IBV=5M
+ CJO=154P VJ=.75 M=.33 TT=50.1N)
* Toshiba 2 Volt  .2 Watt  Zener Diode  11-08-1993
**********
*SRC=02CZ2_2;Z02CZ2_2;Diodes;Zener <=10V;2.2V 200mW
.MODEL Z02CZ2_2 D (IS=96.4P RS=82.8 N=1 BV=1.786 IBV=5M
+ CJO=133P VJ=.75 M=.33 TT=50.1N)
* Toshiba 2.2 Volt  .2 Watt  Zener Diode  11-08-1993
**********
*SRC=02CZ2_4;Z02CZ2_4;Diodes;Zener <=10V;2.4V 200mW
.MODEL Z02CZ2_4 D (IS=331P RS=90.8 N=1 BV=1.946 IBV=5M
+ CJO=117P VJ=.75 M=.33 TT=50.1N)
* Toshiba 2.4 Volt  .2 Watt  Zener Diode  11-08-1993
**********
*SRC=02CZ2_7;Z02CZ2_7;Diodes;Zener <=10V;2.7V 200mW
.MODEL Z02CZ2_7 D (IS=1.03N RS=102 N=1 BV=2.186 IBV=5M
+ CJO=98.3P VJ=.75 M=.33 TT=50.1N)
* Toshiba 2.7 Volt  .2 Watt  Zener Diode  11-08-1993
**********
*SRC=02CZ3_0;Z02CZ3_0;Diodes;Zener <=10V;3.0V 200mW
.MODEL Z02CZ3_0 D (IS=1.03N RS=114 N=1 BV=2.427 IBV=5M
+ CJO=83.9P VJ=.75 M=.33 TT=50.1N)
* Toshiba 3 Volt  .2 Watt  Zener Diode  11-08-1993
**********
*SRC=02CZ3_3;Z02CZ3_3;Diodes;Zener <=10V;3.3V 200mW
.MODEL Z02CZ3_3 D (IS=1.03N RS=124 N=1 BV=2.677 IBV=5M
+ CJO=72.7P VJ=.75 M=.33 TT=50.1N)
* Toshiba 3.3 Volt  .2 Watt  Zener Diode  11-08-1993
**********
*SRC=02CZ3_6;Z02CZ3_6;Diodes;Zener <=10V;3.6V 200mW
.MODEL Z02CZ3_6 D (IS=1.03N RS=124 N=1 BV=2.977 IBV=5M
+ CJO=63.8P VJ=.75 M=.33 TT=50.1N)
* Toshiba 3.6 Volt  .2 Watt  Zener Diode  11-08-1993
**********
*SRC=02CZ3_9;Z02CZ3_9;Diodes;Zener <=10V;3.9V 200mW
.MODEL Z02CZ3_9 D (IS=1.03N RS=124 N=1 BV=3.277 IBV=5M
+ CJO=56.6P VJ=.75 M=.33 TT=50.1N)
* Toshiba 3.9 Volt  .2 Watt  Zener Diode  11-08-1993
**********
*SRC=02CZ4_3;Z02CZ4_3;Diodes;Zener <=10V;4.3V 200mW
.MODEL Z02CZ4_3 D (IS=1.03N RS=124 N=1 BV=3.677 IBV=5M
+ CJO=48.9P VJ=.75 M=.33 TT=50.1N)
* Toshiba 4.3 Volt  .2 Watt  Zener Diode  11-08-1993
**********
*SRC=02CZ4_7;Z02CZ4_7;Diodes;Zener <=10V;4.7V 200mW
.MODEL Z02CZ4_7 D (IS=1.03N RS=114 N=1 BV=4.127 IBV=5M
+ CJO=42.8P VJ=.75 M=.33 TT=50.1N)
* Toshiba 4.7 Volt  .2 Watt  Zener Diode  11-08-1993
**********
*SRC=02CZ5_1;Z02CZ5_1;Diodes;Zener <=10V;5.1V 200mW
.MODEL Z02CZ5_1 D (IS=5.99P RS=64.8 N=1 BV=4.778 IBV=5M
+ CJO=37.8P VJ=.75 M=.33 TT=50.1N)
* Toshiba 5.1 Volt  .2 Watt  Zener Diode  11-08-1993
**********
*SRC=02CZ5_6;Z02CZ5_6;Diodes;Zener <=10V;5.6V 200mW
.MODEL Z02CZ5_6 D (IS=58.3F RS=34.8 N=1 BV=5.428 IBV=5M
+ CJO=32.9P VJ=.75 M=.33 TT=50.1N)
* Toshiba 5.6 Volt  .2 Watt  Zener Diode  11-08-1993
**********
*SRC=02CZ6_2;Z02CZ6_2;Diodes;Zener <=10V;6.2V 200mW
.MODEL Z02CZ6_2 D (IS=12.4F RS=24.8 N=1 BV=6.078 IBV=5M
+ CJO=28.2P VJ=.75 M=.33 TT=50.1N)
* Toshiba 6.2 Volt  .2 Watt  Zener Diode  11-08-1993
**********
*SRC=02CZ6_8;Z02CZ6_8;Diodes;Zener <=10V;6.8V 200mW
.MODEL Z02CZ6_8 D (IS=5.75F RS=19.8 N=1 BV=6.704 IBV=5M
+ CJO=24.6P VJ=.75 M=.33 TT=50.1N)
* Toshiba 6.8 Volt  .2 Watt  Zener Diode  11-08-1993
**********
*SRC=02CZ7_5;Z02CZ7_5;Diodes;Zener <=10V;7.5V 200mW
.MODEL Z02CZ7_5 D (IS=4.22F RS=17.8 N=1 BV=7.414 IBV=5M
+ CJO=21.2P VJ=.75 M=.33 TT=50.1N)
* Toshiba 7.5 Volt  .2 Watt  Zener Diode  11-08-1993
**********
*SRC=02CZ8_2;Z02CZ8_2;Diodes;Zener <=10V;8.2V 200mW
.MODEL Z02CZ8_2 D (IS=2.65F RS=14.8 N=1 BV=8.129 IBV=5M
+ CJO=18.5P VJ=.75 M=.33 TT=50.1N)
* Toshiba 8.2 Volt  .2 Watt  Zener Diode  11-08-1993
**********
*SRC=02CZ9_1;Z02CZ9_1;Diodes;Zener <=10V;9.1V 200mW
.MODEL Z02CZ9_1 D (IS=1.95F RS=12.8 N=1 BV=9.040 IBV=5M
+ CJO=15.8P VJ=.75 M=.33 TT=50.1N)
* Toshiba 9.1 Volt  .2 Watt  Zener Diode  11-08-1993
**********
*SRC=02CZ10;Z02CZ10;Diodes;Zener <=10V;10V 200mW
.MODEL Z02CZ10 D (IS=1.22F RS=9.82 N=1 BV=9.955 IBV=5M
+ CJO=13.7P VJ=.75 M=.33 TT=50.1N)
* Toshiba 10 Volt  .2 Watt  Zener Diode  11-08-1993
**********
*SRC=02CZ11;Z02CZ11;Diodes;Zener 10V-50V;11V 200mW
.MODEL Z02CZ11 D (IS=1.22F RS=9.82 N=1 BV=9.955 IBV=5M
+ CJO=13.7P VJ=.75 M=.33 TT=50.1N)
* Toshiba 10 Volt  .2 Watt  Zener Diode  11-08-1993
**********
*SRC=02CZ12;Z02CZ12;Diodes;Zener 10V-50V;12V 200mW
.MODEL Z02CZ12 D (IS=1.22F RS=9.82 N=1 BV=11.95 IBV=5M
+ CJO=30.8P VJ=1 M=.33 TT=50.1N)
* Toshiba 12 Volt  .2 Watt  Zener Diode  11-08-1993
**********
*SRC=02CZ13;Z02CZ13;Diodes;Zener 10V-50V;13V 200mW
.MODEL Z02CZ13 D (IS=1.22F RS=9.82 N=1 BV=12.95 IBV=5M
+ CJO=29.6P VJ=1 M=.33 TT=50.1N)
* Toshiba 13 Volt  .2 Watt  Zener Diode  11-08-1993
**********
*SRC=02CZ15;Z02CZ15;Diodes;Zener 10V-50V;15V 200mW
.MODEL Z02CZ15 D (IS=1.22F RS=9.82 N=1 BV=14.95 IBV=5M
+ CJO=27.6P VJ=1 M=.33 TT=50.1N)
* Toshiba 15 Volt  .2 Watt  Zener Diode  11-08-1993
**********
*SRC=02CZ16;Z02CZ16;Diodes;Zener 10V-50V;16V 200mW
.MODEL Z02CZ16 D (IS=1.95F RS=12.8 N=1 BV=15.94 IBV=5M
+ CJO=26.8P VJ=1 M=.33 TT=50.1N)
* Toshiba 16 Volt  .2 Watt  Zener Diode  11-08-1993
**********
*SRC=02CZ18;Z02CZ18;Diodes;Zener 10V-50V;18V 200mW
.MODEL Z02CZ18 D (IS=2.65F RS=14.8 N=1 BV=17.93 IBV=5M
+ CJO=25.5P VJ=1 M=.33 TT=50.1N)
* Toshiba 18 Volt  .2 Watt  Zener Diode  11-08-1993
**********
*SRC=02CZ20;Z02CZ20;Diodes;Zener 10V-50V;20V 200mW
.MODEL Z02CZ20 D (IS=5.75F RS=19.8 N=1 BV=19.91 IBV=5M
+ CJO=24.5P VJ=1 M=.33 TT=50.1N)
* Toshiba 20 Volt  .2 Watt  Zener Diode  11-08-1993
**********
*SRC=02CZ22;Z02CZ22;Diodes;Zener 10V-50V;22V 200mW
.MODEL Z02CZ22 D (IS=12.4F RS=24.8 N=1 BV=21.88 IBV=5M
+ CJO=23.6P VJ=1 M=.33 TT=50.1N)
* Toshiba 22 Volt  .2 Watt  Zener Diode  11-08-1993
**********
*SRC=02CZ24;Z02CZ24;Diodes;Zener 10V-50V;24V 200mW
.MODEL Z02CZ24 D (IS=58.3F RS=34.8 N=1 BV=23.83 IBV=5M
+ CJO=22.9P VJ=1 M=.33 TT=50.1N)
* Toshiba 24 Volt  .2 Watt  Zener Diode  11-08-1993
**********
*SRC=02CZ27;Z02CZ27;Diodes;Zener 10V-50V;27V 200mW
.MODEL Z02CZ27 D (IS=5.99P RS=64.8 N=1 BV=26.68 IBV=5M
+ CJO=22P VJ=1 M=.33 TT=50.1N)
* Toshiba 27 Volt  .2 Watt  Zener Diode  11-08-1993
**********
*SRC=02CZ30;Z02CZ30;Diodes;Zener 10V-50V;30V 200mW
.MODEL Z02CZ30 D (IS=28P RS=74.8 N=1 BV=29.64 IBV=5M
+ CJO=21.3P VJ=1 M=.33 TT=50.1N)
* Toshiba 30 Volt  .2 Watt  Zener Diode  11-08-1993
**********
*SRC=02CZ33;Z02CZ33;Diodes;Zener 10V-50V;33V 200mW
.MODEL Z02CZ33 D (IS=28P RS=74.8 N=1 BV=32.64 IBV=5M
+ CJO=20.7P VJ=1 M=.33 TT=50.1N)
* Toshiba 33 Volt  .2 Watt  Zener Diode  11-08-1993
**********
*SRC=02CZ36;Z02CZ36;Diodes;Zener 10V-50V;36V 200mW
.MODEL Z02CZ36 D (IS=131P RS=84.8 N=1 BV=35.59 IBV=5M
+ CJO=20.2P VJ=1 M=.33 TT=50.1N)
* Toshiba 36 Volt  .2 Watt  Zener Diode  11-08-1993
**********
*SRC=02CZ39;Z02CZ39;Diodes;Zener 10V-50V;39V 200mW
.MODEL Z02CZ39 D (IS=615P RS=94.8 N=1 BV=38.54 IBV=5M
+ CJO=19.8P VJ=1 M=.33 TT=50.1N)
* Toshiba 39 Volt  .2 Watt  Zener Diode  11-08-1993
**********
*SRC=02Z5_6A;Z02Z5_6A;Diodes;Zener <=10V;5.6V 250mW
.MODEL Z02Z5_6A D (IS=66.8F RS=27.4 N=1 BV=5.328 IBV=10M
+ CJO=41.1P VJ=.75 M=.33 TT=50.1N)
* Toshiba 5.6 Volt  .25 Watt  Zener Diode  11-08-1993
**********
*SRC=02Z6_2A;Z02Z6_2A;Diodes;Zener <=10V;6.2V 250mW
.MODEL Z02Z6_2A D (IS=9.7F RS=17.4 N=1 BV=6.028 IBV=10M
+ CJO=35.3P VJ=.75 M=.33 TT=50.1N)
* Toshiba 6.2 Volt  .25 Watt  Zener Diode  11-08-1993
**********
*SRC=02Z6_8A;Z02Z6_8A;Diodes;Zener <=10V;6.8V 250mW
.MODEL Z02Z6_8A D (IS=3.26F RS=11.7 N=1 BV=6.709 IBV=8M
+ CJO=30.7P VJ=.75 M=.33 TT=50.1N)
* Toshiba 6.8 Volt  .25 Watt  Zener Diode  11-08-1993
**********
*SRC=02Z7_5A;Z02Z7_5A;Diodes;Zener <=10V;7.5V 250mW
.MODEL Z02Z7_5A D (IS=3.26F RS=11.7 N=1 BV=7.409 IBV=8M
+ CJO=26.5P VJ=.75 M=.33 TT=50.1N)
* Toshiba 7.5 Volt  .25 Watt  Zener Diode  11-08-1993
**********
*SRC=02Z8_2A;Z02Z8_2A;Diodes;Zener <=10V;8.2V 250mW
.MODEL Z02Z8_2A D (IS=8.56F RS=16.7 N=1 BV=8.069 IBV=8M
+ CJO=23.2P VJ=.75 M=.33 TT=50.1N)
* Toshiba 8.2 Volt  .25 Watt  Zener Diode  11-08-1993
**********
*SRC=02Z9_1A;Z02Z9_1A;Diodes;Zener <=10V;9.1V 250mW
.MODEL Z02Z9_1A D (IS=47.9F RS=25.6 N=1 BV=8.950 IBV=6M
+ CJO=19.8P VJ=.75 M=.33 TT=50.1N)
* Toshiba 9.1 Volt  .25 Watt  Zener Diode  11-08-1993
**********
*SRC=02Z10A;Z02Z10A;Diodes;Zener <=10V;V 250mW
.MODEL Z02Z10A D (IS=125F RS=30.6 N=1 BV=9.820 IBV=6M
+ CJO=17.2P VJ=.75 M=.33 TT=50.1N)
* Toshiba 10 Volt  .25 Watt  Zener Diode  11-08-1993
**********
*SRC=02Z11A;Z02Z11A;Diodes;Zener 10V-50V;11V 250mW
.MODEL Z02Z11A D (IS=330F RS=35.7 N=1 BV=10.79 IBV=6M
+ CJO=36.6P VJ=1 M=.33 TT=50.1N)
* Toshiba 11 Volt  .25 Watt  Zener Diode  11-08-1993
**********
*SRC=02Z12A;Z02Z12A;Diodes;Zener 10V-50V;12V 250mW
.MODEL Z02Z12A D (IS=1.92P RS=44.8 N=1 BV=11.78 IBV=5M
+ CJO=34.8P VJ=1 M=.33 TT=50.1N)
* Toshiba 12 Volt  .25 Watt  Zener Diode  11-08-1993
**********
*SRC=02Z13A;Z02Z13A;Diodes;Zener 10V-50V;13V 250mW
.MODEL Z02Z13A D (IS=13.2P RS=54.8 N=1 BV=12.73 IBV=5M
+ CJO=33.2P VJ=1 M=.33 TT=50.1N)
* Toshiba 13 Volt  .25 Watt  Zener Diode  11-08-1993
**********
*SRC=02Z15A;Z02Z15A;Diodes;Zener 10V-50V;15V 250mW
.MODEL Z02Z15A D (IS=91.4P RS=64.8 N=1 BV=14.68 IBV=5M
+ CJO=30.8P VJ=1 M=.33 TT=50.1N)
* Toshiba 15 Volt  .25 Watt  Zener Diode  11-08-1993
**********
*SRC=02Z16A;Z02Z16A;Diodes;Zener 10V-50V;16V 250mW
.MODEL Z02Z16A D (IS=1.29N RS=82.6 N=1 BV=15.71 IBV=3.5M
+ CJO=29.8P VJ=1 M=.33 TT=50.1N)
* Toshiba 16 Volt  .25 Watt  Zener Diode  11-08-1993
**********
*SRC=02Z18A;Z02Z18A;Diodes;Zener 10V-50V;18V 250mW
.MODEL Z02Z18A D (IS=1.29N RS=92.6 N=1 BV=17.68 IBV=3.5M
+ CJO=28.2P VJ=1 M=.33 TT=50.1N)
* Toshiba 18 Volt  .25 Watt  Zener Diode  11-08-1993
**********
*SRC=02Z20A;Z02Z20A;Diodes;Zener 10V-50V;20V 250mW
.MODEL Z02Z20A D (IS=1.29N RS=112 N=1 BV=19.61 IBV=3.5M
+ CJO=26.8P VJ=1 M=.33 TT=50.1N)
* Toshiba 20 Volt  .25 Watt  Zener Diode  11-08-1993
**********
*SRC=02Z22A;Z02Z22A;Diodes;Zener 10V-50V;22V 250mW
.MODEL Z02Z22A D (IS=1.29N RS=149 N=1 BV=21.63 IBV=2.5M
+ CJO=25.8P VJ=1 M=.33 TT=50.1N)
* Toshiba 22 Volt  .25 Watt  Zener Diode  11-08-1993
**********
*SRC=02Z24A;Z02Z24A;Diodes;Zener 10V-50V;24V 250mW
.MODEL Z02Z24A D (IS=1.29N RS=189 N=1 BV=23.53 IBV=2.5M
+ CJO=24.9P VJ=1 M=.33 TT=50.1N)
* Toshiba 24 Volt  .25 Watt  Zener Diode  11-08-1993
**********
*SRC=04AZ2_0;Z04AZ2_0;Diodes;Zener <=10V;2.0V .4W
.MODEL Z04AZ2_0 D (IS=25.2P RS=34.8 N=1 BV=1.826 IBV=5M
+ CJO=308P VJ=.75 M=.33 TT=50.1N)
* Toshiba 2 Volt  .4 Watt  Zener Diode  11-08-1993
**********
*SRC=04AZ2_2;Z04AZ2_2;Diodes;Zener <=10V;2.2V .4W
.MODEL Z04AZ2_2 D (IS=86.7P RS=38.8 N=1 BV=2.006 IBV=5M
+ CJO=267P VJ=.75 M=.33 TT=50.1N)
* Toshiba 2.2 Volt  .4 Watt  Zener Diode  11-08-1993
**********
*SRC=04AZ2_4;Z04AZ2_4;Diodes;Zener <=10V;2.4V .4W
.MODEL Z04AZ2_4 D (IS=298P RS=42.8 N=1 BV=2.186 IBV=5M
+ CJO=234P VJ=.75 M=.33 TT=50.1N)
* Toshiba 2.4 Volt  .4 Watt  Zener Diode  11-08-1993
**********
*SRC=04AZ2_7;Z04AZ2_7;Diodes;Zener <=10V;2.7V .4W
.MODEL Z04AZ2_7 D (IS=1.9N RS=48.8 N=1 BV=2.457 IBV=5M
+ CJO=196P VJ=.75 M=.33 TT=50.1N)
* Toshiba 2.7 Volt  .4 Watt  Zener Diode  11-08-1993
**********
*SRC=04AZ3_0;Z04AZ3_0;Diodes;Zener <=10V;3.0V .4W
.MODEL Z04AZ3_0 D (IS=2.07N RS=54.8 N=1 BV=2.727 IBV=5M
+ CJO=167P VJ=.75 M=.33 TT=50.1N)
* Toshiba 3 Volt  .4 Watt  Zener Diode  11-08-1993
**********
*SRC=04AZ3_3;Z04AZ3_3;Diodes;Zener <=10V;3.3V .4W
.MODEL Z04AZ3_3 D (IS=2.07N RS=60.8 N=1 BV=2.997 IBV=5M
+ CJO=145P VJ=.75 M=.33 TT=50.1N)
* Toshiba 3.3 Volt  .4 Watt  Zener Diode  11-08-1993
**********
*SRC=04AZ3_6;Z04AZ3_6;Diodes;Zener <=10V;3.6V .4W
.MODEL Z04AZ3_6 D (IS=2.07N RS=66.8 N=1 BV=3.267 IBV=5M
+ CJO=127P VJ=.75 M=.33 TT=50.1N)
* Toshiba 3.6 Volt  .4 Watt  Zener Diode  11-08-1993
**********
*SRC=04AZ3_9;Z04AZ3_9;Diodes;Zener <=10V;3.9V .4W
.MODEL Z04AZ3_9 D (IS=2.07N RS=72.8 N=1 BV=3.537 IBV=5M
+ CJO=113P VJ=.75 M=.33 TT=50.1N)
* Toshiba 3.9 Volt  .4 Watt  Zener Diode  11-08-1993
**********
*SRC=04AZ4_3;Z04AZ4_3;Diodes;Zener <=10V;4.3V .4W
.MODEL Z04AZ4_3 D (IS=2.07N RS=80.8 N=1 BV=3.897 IBV=5M
+ CJO=97.8P VJ=.75 M=.33 TT=50.1N)
* Toshiba 4.3 Volt  .4 Watt  Zener Diode  11-08-1993
**********
*SRC=04AZ4_7;Z04AZ4_7;Diodes;Zener <=10V;4.7V .4W
.MODEL Z04AZ4_7 D (IS=2.07N RS=74.8 N=1 BV=4.328 IBV=5M
+ CJO=85.6P VJ=.75 M=.33 TT=50.1N)
* Toshiba 4.7 Volt  .4 Watt  Zener Diode  11-08-1993
**********
*SRC=04AZ5_1;Z04AZ5_1;Diodes;Zener <=10V;5.1V .4W
.MODEL Z04AZ5_1 D (IS=2.07N RS=54.8 N=1 BV=4.828 IBV=5M
+ CJO=75.7P VJ=.75 M=.33 TT=50.1N)
* Toshiba 5.1 Volt  .4 Watt  Zener Diode  11-08-1993
**********
*SRC=04AZ5_6;Z04AZ5_6;Diodes;Zener <=10V;5.6V .4W
.MODEL Z04AZ5_6 D (IS=25.2P RS=34.8 N=1 BV=5.428 IBV=5M
+ CJO=65.8P VJ=.75 M=.33 TT=50.1N)
* Toshiba 5.6 Volt  .4 Watt  Zener Diode  11-08-1993
**********
*SRC=04AZ6_2;Z04AZ6_2;Diodes;Zener <=10V;6.2V .4W
.MODEL Z04AZ6_2 D (IS=1.14P RS=24.8 N=1 BV=6.078 IBV=5M
+ CJO=56.5P VJ=.75 M=.33 TT=50.1N)
* Toshiba 6.2 Volt  .4 Watt  Zener Diode  11-08-1993
**********
*SRC=04AZ6_8;Z04AZ6_8;Diodes;Zener <=10V;6.8V .4W
.MODEL Z04AZ6_8 D (IS=245F RS=19.8 N=1 BV=6.704 IBV=5M
+ CJO=49.2P VJ=.75 M=.33 TT=50.1N)
* Toshiba 6.8 Volt  .4 Watt  Zener Diode  11-08-1993
**********
*SRC=04AZ7_5;Z04AZ7_5;Diodes;Zener <=10V;7.5V .4W
.MODEL Z04AZ7_5 D (IS=245F RS=19.8 N=1 BV=7.404 IBV=5M
+ CJO=42.4P VJ=.75 M=.33 TT=50.1N)
* Toshiba 7.5 Volt  .4 Watt  Zener Diode  11-08-1993
**********
*SRC=04AZ8_2;Z04AZ8_2;Diodes;Zener <=10V;8.2V .4W
.MODEL Z04AZ8_2 D (IS=52.4F RS=14.8 N=1 BV=8.129 IBV=5M
+ CJO=37.1P VJ=.75 M=.33 TT=50.1N)
* Toshiba 8.2 Volt  .4 Watt  Zener Diode  11-08-1993
**********
*SRC=04AZ9_1;Z04AZ9_1;Diodes;Zener <=10V;9.1V .4W
.MODEL Z04AZ9_1 D (IS=52.4F RS=14.8 N=1 BV=9.030 IBV=5M
+ CJO=31.7P VJ=.75 M=.33 TT=50.1N)
* Toshiba 9.1 Volt  .4 Watt  Zener Diode  11-08-1993
**********
*SRC=04AZ10;Z04AZ10;Diodes;Zener <=10V;10V .4W
.MODEL Z04AZ10 D (IS=52.4F RS=14.8 N=1 BV=9.930 IBV=5M
+ CJO=27.5P VJ=.75 M=.33 TT=50.1N)
* Toshiba 10 Volt  .4 Watt  Zener Diode  11-08-1993
**********
*SRC=04AZ11;Z04AZ11;Diodes;Zener 10V-50V;11V .4W
.MODEL Z04AZ11 D (IS=52.4F RS=14.8 N=1 BV=10.93 IBV=5M
+ CJO=49.5P VJ=1 M=.33 TT=50.1N)
* Toshiba 11 Volt  .4 Watt  Zener Diode  11-08-1993
**********
*SRC=04AZ13;Z04AZ13;Diodes;Zener 10V-50V;13V .4W
.MODEL Z04AZ13 D (IS=245F RS=19.8 N=1 BV=12.90 IBV=5M
+ CJO=44.2P VJ=1 M=.33 TT=50.1N)
* Toshiba 13 Volt  .4 Watt  Zener Diode  11-08-1993
**********
*SRC=04AZ12;Z04AZ12;Diodes;Zener 10V-50V;12V .4W
.MODEL Z04AZ12 D (IS=245F RS=19.8 N=1 BV=11.90 IBV=5M
+ CJO=46.6P VJ=1 M=.33 TT=50.1N)
* Toshiba 12 Volt  .4 Watt  Zener Diode  11-08-1993
**********
*SRC=04AZ15;Z04AZ15;Diodes;Zener 10V-50V;15V .4W
.MODEL Z04AZ15 D (IS=245F RS=19.8 N=1 BV=14.90 IBV=5M
+ CJO=40.3P VJ=1 M=.33 TT=50.1N)
* Toshiba 15 Volt  .4 Watt  Zener Diode  11-08-1993
**********
*SRC=04AZ16;Z04AZ16;Diodes;Zener 10V-50V;16V .4W
.MODEL Z04AZ16 D (IS=245F RS=19.8 N=1 BV=15.90 IBV=5M
+ CJO=38.7P VJ=1 M=.33 TT=50.1N)
* Toshiba 16 Volt  .4 Watt  Zener Diode  11-08-1993
**********
*SRC=04AZ18;Z04AZ18;Diodes;Zener 10V-50V;18V .4W
.MODEL Z04AZ18 D (IS=1.14P RS=24.8 N=1 BV=17.88 IBV=5M
+ CJO=36.1P VJ=1 M=.33 TT=50.1N)
* Toshiba 18 Volt  .4 Watt  Zener Diode  11-08-1993
**********
*SRC=04AZ20;Z04AZ20;Diodes;Zener 10V-50V;20V .4W
.MODEL Z04AZ20 D (IS=1.14P RS=24.8 N=1 BV=19.88 IBV=5M
+ CJO=34P VJ=1 M=.33 TT=50.1N)
* Toshiba 20 Volt  .4 Watt  Zener Diode  11-08-1993
**********
*SRC=04AZ22;Z04AZ22;Diodes;Zener 10V-50V;22V .4W
.MODEL Z04AZ22 D (IS=1.14P RS=24.8 N=1 BV=21.88 IBV=5M
+ CJO=32.2P VJ=1 M=.33 TT=50.1N)
* Toshiba 22 Volt  .4 Watt  Zener Diode  11-08-1993
**********
*SRC=04AZ24;Z04AZ24;Diodes;Zener 10V-50V;24V .4W
.MODEL Z04AZ24 D (IS=5.38P RS=29.8 N=1 BV=23.86 IBV=5M
+ CJO=30.8P VJ=1 M=.33 TT=50.1N)
* Toshiba 24 Volt  .4 Watt  Zener Diode  11-08-1993
**********
*SRC=04AZ27;Z04AZ27;Diodes;Zener 10V-50V;27V .4W
.MODEL Z04AZ27 D (IS=118P RS=39.8 N=1 BV=23.81 IBV=5M
+ CJO=30.8P VJ=1 M=.33 TT=50.1N)
* Toshiba 24 Volt  .4 Watt  Zener Diode  11-08-1993
**********