**********
* Copyright Intusoft 1994-1997
* All Rights Reserved
**********
**********
Fuji Schottky diodes
**********
*SRC=ERA8204;ERA8204;Diodes;Schottky;45V .6A 
.MODEL ERA8204 D (IS=1.55U RS=.133 N=1.17 BV=45 IBV=50U
+ CJO=107P VJ=.75 M=.333 XTI=3 EG=.69 TT=72P)
* Fuji 45 Volt  .6 Amp   Schottky Diode  06-25-1993
**********
*SRC=ERA83004;ERA83004;Diodes;Schottky;45V 1A 
.MODEL ERA83004 D (IS=3.91U RS=.114 N=1.17 BV=45 IBV=50U
+ CJO=175P VJ=.75 M=.333 XTI=3 EG=.69 TT=72P)
* Fuji 45 Volt  1 Amp   Schottky Diode  06-25-1993
**********
*SRC=ERA83006;ERA83006;Diodes;Schottky;60V 1A 
.MODEL ERA83006 D (IS=22.7U RS=84.8M N=1.34 BV=60 IBV=100U
+ CJO=109P VJ=.75 M=.333 XTI=3 EG=.69 TT=72P)
* Fuji 60 Volt  1 Amp   Schottky Diode  06-25-1993
**********
*SRC=ERA85009;ERA85009;Diodes;Schottky;90V 1A 
.MODEL ERA85009 D (IS=4.35U RS=.229 N=1.25 BV=90 IBV=30U
+ CJO=85.4P VJ=.75 M=.333 XTI=3 EG=.69 TT=72P)
* Fuji 90 Volt  1 Amp   Schottky Diode  06-26-1993
**********
*SRC=ERB83004;ERB83004;Diodes;Schottky;45V 2A 
.MODEL ERB83004 D (IS=9.43U RS=49.3M N=1.17 BV=45 IBV=300U
+ CJO=316P VJ=.75 M=.333 XTI=3 EG=.69 TT=72P)
* Fuji 45 Volt  2 Amp   Schottky Diode  06-29-1993
**********
*SRC=ERB83006;ERB83006;Diodes;Schottky;60V 2A 
.MODEL ERB83006 D (IS=2.73U RS=43.4M N=1.05 BV=60 IBV=100U
+ CJO=230P VJ=.75 M=.333 XTI=3 EG=.69 TT=72P)
* Fuji 60 Volt  2 Amp   Schottky Diode  06-29-1993
**********
*SRC=ERB84009;ERB84009;Diodes;Schottky;90V 2A 
.MODEL ERB84009 D (IS=5.16U RS=.104 N=1.25 BV=90 IBV=30U
+ CJO=179P VJ=.75 M=.333 XTI=3 EG=.69 TT=72P)
* Fuji 90 Volt  2 Amp   Schottky Diode  06-29-1993
**********
*SRC=ESAC8204;ESAC8204;Diodes;Schottky;45V 15A
.MODEL ESAC8204 D (IS=33.4U RS=21.9M N=1.34 BV=45 IBV=300U
+ CJO=683P VJ=.75 M=.333 XTI=3 EG=.69 TT=72P)
* Fuji 45 Volt  15 Amp   Schottky Diode  06-29-1993
**********
*SRC=ESAC6304;ESAC6304;Diodes;Schottky;45V 20A
.MODEL ESAC6304 D (IS=66.8U RS=15.9M N=1.34 BV=45 IBV=1M
+ CJO=1.02N VJ=.75 M=.333 XTI=3 EG=.69 TT=72P)
* Fuji 45 Volt  20 Amp   Schottky Diode  06-29-1993
**********
*SRC=ERC62M04;ERC62M04;Diodes;Schottky;45V 10A
.MODEL ERC62M04 D (IS=20.3U RS=15.2M N=1.17 BV=45 IBV=1M
+ CJO=1.02N VJ=.75 M=.333 XTI=3 EG=.69 TT=72P)
* Fuji 45 Volt  10 Amp   Schottky Diode  06-29-1993
**********
*SRC=ESAE8304;ESAE8304;Diodes;Schottky;45V 60A
.MODEL ESAE8304 D (IS=645U RS=3.83M N=1.5 BV=45 IBV=1M
+ CJO=3.41N VJ=.75 M=.333 XTI=3 EG=.69 TT=72P)
* Fuji 45 Volt  60 Amp   Schottky Diode  06-29-1993
**********
*SRC=ESAE8306;ESAE8306;Diodes;Schottky;60V 60A 
.MODEL ESAE8306 D (IS=249U RS=5.83M N=1.32 BV=60 IBV=1.2M
+ CJO=3.18N VJ=.75 M=.333 XTI=3 EG=.69 TT=72P)
* Fuji 60 Volt  60 Amp   Schottky Diode  06-29-1993
**********
H-P Schottky diodes
**********
*SRC=5082-2723;HP2723;Diodes;Schottky;400V .5A
.MODEL HP2723 D (IS=.3N RS=7 N=1.08 BV=4 IBV=10U
+ CJO=.1P VJ=.65 M=.5 EG=.69 TT=72P)
* 400 Volt  .5 Amp  Si Schottky Diode  06-16-1993
* H-P 5082-0023, 5082-2702, 5082-2723 
**********
*SRC=5082-2837;HP2837;Diodes;Schottky;400V .5A
.MODEL HP2837 D (IS=2.2N RS=25 N=1.08 BV=75 IBV=10U
+ CJO=1.6P VJ=.6 M=.5 EG=.69 TT=72P)
* 400 Volt  .5 Amp  Si Schottky Diode  06-16-1993
* H-P 5082-0024, 5082-2800, 5082-2837 
**********
*SRC=5082-2350;HP2350;Diodes;Schottky;400V .5A
.MODEL HP2350 D (IS=10N RS=15 N=1.08 BV=30 IBV=10U
+ CJO=1.1P VJ=.64 M=.5 EG=.69 TT=72P)
* H-P 5082-2350 400 Volt  .5 Amp  Si Schottky Diode  06-16-1993
**********
*SRC=5082-2824;HP2824;Diodes;Schottky;400V .5A
.MODEL HP2824 D (IS=1.1N RS=10 N=1.08 BV=25 IBV=10U
+ CJO=.8P VJ=.6 M=.5 EG=.69 TT=72P)
* 400 Volt  .5 Amp  Si Schottky Diode  06-16-1993
* H-P 5082-0087, 5082-2810, 5082-2817, 5082-2824, 
**********
*SRC=5082-2400;HP2400;Diodes;Schottky;400V .5A
.MODEL HP2400 D (IS=7N RS=10 N=1.08 BV=35 IBV=10U
+ CJO=.7P VJ=.64 M=.5 EG=.69 TT=72P)
* 400 Volt  .5 Amp  Si Schottky Diode  06-16-1993
* H-P 5082-2301, 5082-2302, 5082-2400
**********
*SRC=5082-2303;HP2303;Diodes;Schottky;400V .5A
.MODEL HP2303 D (IS=7N RS=10 N=1.08 BV=25 IBV=10U
+ CJO=.7P VJ=.64 M=.5 EG=.69 TT=72P)
* H-P 5082-2303 400 Volt  .5 Amp  Si Schottky Diode  06-16-1993
**********
*SRC=5082-2831;HP2831;Diodes;Schottky;400V .5A
.MODEL HP2831 D (IS=.3U RS=6 N=1.08 BV=10 IBV=10U
+ CJO=.4P VJ=.5 M=.5 EG=.69 TT=72P)
* 400 Volt  .5 Amp  Si Schottky Diode  06-16-1993
* H-P 5082-2231, 5082-2271, 5082-2831
**********
*SRC=5082-2233;HP2233;Diodes;Schottky;400V .5A
.MODEL HP2233 D (IS=120N RS=10 N=1.08 BV=5 IBV=10U
+ CJO=.3P VJ=.5 M=.5 EG=.69 TT=72P)
* H-P 5082-2233 400 Volt  .5 Amp  Si Schottky Diode  06-16-1993
**********
*SRC=5082-2263;HP2263;Diodes;Schottky;400V .5A
.MODEL HP2263 D (IS=.3N RS=10 N=1.08 BV=5 IBV=10U
+ CJO=.3P VJ=.65 M=.5 EG=.69 TT=72P)
* H-P 5082-2263 400 Volt  .5 Amp  Si Schottky Diode  06-16-1993
**********
*SRC=5082-2830;HP2830;Diodes;Schottky;400V .5A
.MODEL HP2830 D (IS=.2N RS=6 N=1.08 BV=10 IBV=10U
+ CJO=.4P VJ=.65 M=.5 EG=.69 TT=72P)
* H-P 5082-2830 400 Volt  .5 Amp  Si Schottky Diode  06-16-1993
**********
*SRC=5082-2277;HP2277;Diodes;Schottky;400V .5A
.MODEL HP2277 D (IS=.2N RS=9 N=1.08 BV=10 IBV=10U
+ CJO=.35P VJ=.65 M=.5 EG=.69 TT=72P)
* H-P 5082-2277 400 Volt  .5 Amp  Si Schottky Diode  06-16-1993
**********
*SRC=5082-2272;HP2272;Diodes;Schottky;400V .5A
.MODEL HP2272 D (IS=.3U RS=9 N=1.08 BV=10 IBV=10U
+ CJO=.25P VJ=.5 M=.5 EG=.69 TT=72P)
* H-P 5082-2272 400 Volt  .5 Amp  Si Schottky Diode  06-16-1993
**********
*SRC=5082-2279;HP2279;Diodes;Schottky;400V .5A
.MODEL HP2279 D (IS=120N RS=10 N=1.08 BV=5 IBV=10U
+ CJO=.12P VJ=.5 M=.5 EG=.69 TT=72P)
* H-P 5082-2279 400 Volt  .5 Amp  Si Schottky Diode  06-16-1993
**********
*SRC=5082-2280;HP2280;Diodes;Schottky;400V .5A
.MODEL HP2280 D (IS=120N RS=10 N=1.08 BV=5 IBV=10U
+ CJO=.09P VJ=.5 M=.5 EG=.69 TT=72P)
* H-P 5082-2280 400 Volt  .5 Amp  Si Schottky Diode  06-16-1993
**********
*SRC=5082-2291;HP2291;Diodes;Schottky;400V .5A
.MODEL HP2291 D (IS=.2N RS=6 N=1.08 BV=10 IBV=10U
+ CJO=.4P VJ=.65 M=.5 EG=.69 TT=72P)
* H-P 5082-2291 400 Volt  .5 Amp  Si Schottky Diode  06-16-1993
**********
*SRC=5082-2292;HP2292;Diodes;Schottky;400V .5A
.MODEL HP2292 D (IS=.2N RS=9 N=1.08 BV=10 IBV=10U
+ CJO=.3P VJ=.65 M=.5 EG=.69 TT=72P)
* H-P 5082-2292 400 Volt  .5 Amp  Si Schottky Diode  06-16-1993
**********
*SRC=5082-294;HP2294;Diodes;Schottky;400V .5A
.MODEL HP2294 D (IS=.3N RS=10 N=1.08 BV=5 IBV=10U
+ CJO=.09P VJ=.65 M=.5 EG=.69 TT=72P)
* H-P 5082-294 400 Volt  .5 Amp  Si Schottky Diode  06-16-1993
**********
*SRC=5082-2794;HP2794;Diodes;Schottky;400V .5A
.MODEL HP2794 D (IS=40N RS=6 N=1.08 BV=5 IBV=10U
+ CJO=.2P VJ=.5 M=.5 EG=.69 TT=72P)
* 400 Volt  .5 Amp  Si Schottky Diode  06-16-1993
* H-P 5082-2765, 5082-2774, 5082-2785, 5082-2794 
**********
*SRC=5082-0013;HP0013;Diodes;Schottky;400V .5A
.MODEL HP0013 D (IS=70N RS=10 N=1.08 BV=4 IBV=10U
+ CJO=.15P VJ=.5 M=.5 EG=.69 TT=72P)
* H-P 5082-0013 400 Volt  .5 Amp  Si Schottky Diode  06-16-1993
**********
*SRC=5082-275X;HP275X;Diodes;Schottky;400V .5A
.MODEL HP275X D (IS=1.2N RS=35 N=1.08 BV=5 IBV=10U
+ CJO=.1P VJ=.6 M=.5 EG=.69 TT=72P)
* 400 Volt  .5 Amp  Si Schottky Diode  06-16-1993
* H-P 5082-0009, 5082-275X
**********
*SRC=5082-2787;HP2787;Diodes;Schottky;400V .5A
.MODEL HP2787 D (IS=1.2N RS=35 N=1.08 BV=5 IBV=10U
+ CJO=.12P VJ=.6 M=.5 EG=.69 TT=72P)
* H-P 5082-2787 400 Volt  .5 Amp  Si Schottky Diode  06-16-1993
**********
*SRC=5082-2209;HP2209;Diodes;Schottky;400V .5A
.MODEL HP2209 D (IS=.3N RS=5 N=1.08 BV=5 IBV=10U
+ CJO=.2P VJ=.65 M=.5 EG=.69 TT=72P)
* 400 Volt  .5 Amp  Si Schottky Diode  06-16-1993
* H-P 5082-2200, 5082-2202, 5082-2207, 5082-2209
**********
*SRC=5082-2835;HP2835;Diodes;Schottky;400V .5A
.MODEL HP2835 D (IS=22N RS=5 N=1.08 BV=9 IBV=10U
+ CJO=.7P VJ=.56 M=.5 EG=.69 TT=72P)
* H-P 5082-2835 400 Volt  .5 Amp  Si Schottky Diode  06-16-1993
**********
*SRC=HSCH-9XXX;HP9XXX;Diodes;Schottky;400V .5A
.MODEL HP9XXX D (IS=.16N RS=5 N=1.2 BV=5 IBV=10U
+ CJO=.04P VJ=.65 M=.5 EG=1.43 TT=72P)
* H-P HSCH-9XXX 400 Volt  .5 Amp  Si Schottky Diode  06-16-1993
**********
*SRC=HSCH-6512;HP6512;Diodes;Schottky;400V .5A
.MODEL HP6512 D (IS=.3N RS=5 N=1.08 BV=5 IBV=10U
+ CJO=.2P VJ=.65 M=.5 EG=.69 TT=72P)
* 400 Volt  .5 Amp  Si Schottky Diode  06-16-1993
* H-P HSCH-5316, HSCH-5318, HSCH-5514, HSCH-5516, HSCH-6312, HSCH-6512 
**********
*SRC=HSCH-6510;HP6510;Diodes;Schottky;400V .5A
.MODEL HP6510 D (IS=.3N RS=9 N=1.08 BV=5 IBV=10U
+ CJO=.13P VJ=.65 M=.5 EG=.69 TT=72P)
* 400 Volt  .5 Amp  Si Schottky Diode  06-16-1993
* H-P HSCH-5312, HSCH-5314, HSCH-5512, HSCH-5518, HSCH-6310, HSCH-6510 
**********
*SRC=HSCH-5520;HP5520;Diodes;Schottky;400V .5A
.MODEL HP5520 D (IS=.3N RS=13 N=1.08 BV=5 IBV=10U
+ CJO=.09P VJ=.65 M=.5 EG=.69 TT=72P)
* 400 Volt  .5 Amp  Si Schottky Diode  06-16-1993
* H-P HSCH-5310, HSCH-5320, HSCH-5510, HSCH-5511, HSCH-5520 
**********
*SRC=HSCH-320X;HP320X;Diodes;Schottky;400V .5A
.MODEL HP320X D (IS=70N RS=10 N=1.08 BV=4 IBV=10U
+ CJO=.15P VJ=.5 M=.5 EG=.69 TT=72P)
* 400 Volt  .5 Amp  Si Schottky Diode  06-16-1993
* H-P HSCH-320X 
**********
*SRC=HSCH-3486;HP3486;Diodes;Schottky;400V .5A
.MODEL HP3486 D (IS=5U RS=50 N=1.08 BV=2.5 IBV=35U
+ CJO=.2P VJ=.35 M=.5 EG=.69 TT=72P)
* H-P HSCH-3486 400 Volt  .5 Amp  Si Schottky Diode  06-16-1993 
**********
*SRC=HSCH-5540;HP5540;Diodes;Schottky;400V .5A
.MODEL HP5540 D (IS=40N RS=13 N=1.08 BV=5 IBV=10U
+ CJO=.09P VJ=.5 M=.5 EG=.69 TT=72P)
* 400 Volt  .5 Amp  Si Schottky Diode  06-16-1993
* H-P HSCH-5330, HSCH-5340, HSCH-5530, HSCH-5531, HSCH-5540 
**********
*SRC=HSCH-6530;HP6530;Diodes;Schottky;400V .5A
.MODEL HP6530 D (IS=40N RS=9 N=1.08 BV=5 IBV=10U
+ CJO=.13P VJ=.5 M=.5 EG=.69 TT=72P)
* 400 Volt  .5 Amp  Si Schottky Diode  06-16-1993
* H-P HSCH-5332, HSCH-5334, HSCH-5532, HSCH-5538, HSCH-6330, HSCH-6530 
**********
*SRC=HSCH-6532;HP6532;Diodes;Schottky;400V .5A
.MODEL HP6532 D (IS=40N RS=6 N=1.08 BV=5 IBV=10U
+ CJO=.2P VJ=.5 M=.5 EG=.69 TT=72P)
* 400 Volt  .5 Amp  Si Schottky Diode  06-16-1993
* H-P HSCH-5336, HSCH-5338, HSCH-5534, HSCH-5536, HSCH-6332, HSCH-6532 
**********
*SRC=HSCH-5832;HP5832;Diodes;Schottky;400V .5A
.MODEL HP5832 D (IS=46N RS=8 N=1.08 BV=4 IBV=10U
+ CJO=.13P VJ=.5 M=.5 EG=.69 TT=72P)
* H-P HSCH-5832 400 Volt  .5 Amp  Si Schottky Diode  06-16-1993 
**********
*SRC=HSCH-5830;HP5830;Diodes;Schottky;400V .5A
.MODEL HP5830 D (IS=46N RS=12 N=1.08 BV=4 IBV=10U
+ CJO=.09P VJ=.5 M=.5 EG=.69 TT=72P)
* H-P HSCH-5830 400 Volt  .5 Amp  Si Schottky Diode  06-16-1993 
**********
*SRC=HSCH-5816;HP5816;Diodes;Schottky;400V .5A
.MODEL HP5816 D (IS=62P RS=4 N=1.08 BV=4 IBV=10U
+ CJO=.2P VJ=.65 M=.5 EG=.69 TT=72P)
* H-P HSCH-5816 400 Volt  .5 Amp  Si Schottky Diode  06-16-1993 
**********
*SRC=HSCH-5812;HP5812;Diodes;Schottky;400V .5A
.MODEL HP5812 D (IS=62P RS=8 N=1.08 BV=4 IBV=10U
+ CJO=.13P VJ=.65 M=.5 EG=.69 TT=72P)
* H-P HSCH-5812 400 Volt  .5 Amp  Si Schottky Diode  06-16-1993 
**********
*SRC=HSCH-5810;HP5810;Diodes;Schottky;400V .5A
.MODEL HP5810 D (IS=62P RS=12 N=1.08 BV=4 IBV=10U
+ CJO=.09P VJ=.65 M=.5 EG=.69 TT=72P)
* H-P HSCH-5810 400 Volt  .5 Amp  Si Schottky Diode  06-16-1993 
**********
*SRC=HSCH-5938;HP5938;Diodes;Schottky;400V .5A
.MODEL HP5938 D (IS=.16U RS=4 N=1.08 BV=5 IBV=10U
+ CJO=.4P VJ=.5 M=.5 EG=.69 TT=72P)
* H-P HSCH-5938 400 Volt  .5 Amp  Si Schottky Diode  06-16-1993 
**********
*SRC=HSCH-5918;HP5918;Diodes;Schottky;400V .5A
.MODEL HP5918 D (IS=1.5N RS=4 N=1.08 BV=5 IBV=10U
+ CJO=.4P VJ=.65 M=.5 EG=.69 TT=72P)
* H-P HSCH-5918 400 Volt  .5 Amp  Si Schottky Diode  06-16-1993 
**********
*SRC=HSCH-5958;HP5958;Diodes;Schottky;400V .5A
.MODEL HP5958 D (IS=1P RS=4 N=1.08 BV=5 IBV=10U
+ CJO=.4P VJ=.85 M=.5 EG=.69 TT=72P)
* H-P HSCH-5958 400 Volt  .5 Amp  Si Schottky Diode  06-16-1993 
**********
*SRC=HSCH-5932;HP5932;Diodes;Schottky;400V .5A
.MODEL HP5932 D (IS=40N RS=10 N=1.08 BV=5 IBV=10U
+ CJO=.12P VJ=.5 M=.5 EG=.69 TT=72P)
* H-P HSCH-5932 400 Volt  .5 Amp  Si Schottky Diode  06-16-1993 
**********
*SRC=HSCH-5912;HP5912;Diodes;Schottky;400V .5A
.MODEL HP5912 D (IS=.4N RS=10 N=1.08 BV=5 IBV=10U
+ CJO=.12P VJ=.65 M=.5 EG=.69 TT=72P)
* H-P HSCH-5912 400 Volt  .5 Amp  Si Schottky Diode  06-16-1993 
**********
*SRC=HSCH-5952;HP5952;Diodes;Schottky;400V .5A
.MODEL HP5952 D (IS=.1P RS=10 N=1.08 BV=5 IBV=10U
+ CJO=.12P VJ=.85 M=.5 EG=.69 TT=72P)
* H-P HSCH-5952 400 Volt  .5 Amp  Si Schottky Diode  06-16-1993 
**********
*SRC=HSCH-5836;HP5836;Diodes;Schottky;400V .5A
.MODEL HP5836 D (IS=46N RS=4 N=1.08 BV=4 IBV=10U
+ CJO=.2P VJ=.5 M=.5 EG=.69 TT=72P)
* H-P HSCH-5836 400 Volt  .5 Amp  Si Schottky Diode  06-16-1993 
**********
*SRC=HSMS-280X;HP280X;Diodes;Schottky;400V .5A
.MODEL HP280X D (IS=3E-8 RS=30 N=1.08 BV=75 IBV=10E-5
+ CJO=1.6P VJ=.65 M=.5 EG=.69 XTI=2 TT=72P)
* 400 Volt  .5 Amp  Si Schottky Diode  06-16-1993 
* H-P HSMS-0001, HSMS-280X 
**********
*SRC=HSMS-281X;HP281X;Diodes;Schottky;400V .5A
.MODEL HP281X D (IS=4.8E-9 RS=10 N=1.08 BV=25 IBV=10E-5
+ CJO=1.1P VJ=.65 M=.5 EG=.69 XTI=2 TT=72P)
* 400 Volt  .5 Amp  Si Schottky Diode  06-16-1993 
* H-P HSMS-0002, HSMS-281X 
**********
*SRC=HSMS-282X;HP282X;Diodes;Schottky;400V .5A
.MODEL HP282X D (IS=22N RS=5 N=1.08 BV=9 IBV=10E-4
+ CJO=.7P VJ=.56 M=.5 EG=.69 XTI=2 TT=72P)
* 400 Volt  .5 Amp  Si Schottky Diode  06-16-1993 
* H-P HSMS-0003, HSMS-282X 
**********
*SRC=HSMS-284X;HP284X;Diodes;Schottky;400V .5A
.MODEL HP284X D (IS=30N RS=22 N=1.08 BV=60 IBV=10U
+ CJO=1.8P VJ=.65 M=.5 EG=.69 TT=72P)
* H-P HSMS-284X 400 Volt  .5 Amp  Si Schottky Diode  06-16-1993  
**********
*SRC=HSMS-285X;HP285X;Diodes;Schottky;400V .5A
.MODEL HP285X D (IS=3E-6 RS=25 N=1.06 BV=3.8 IBV=3E-4
+ CJO=.18P VJ=.35 M=.5 EG=.69 XTI=2 TT=72P)
* H-P HSMS-284X 400 Volt  .5 Amp  Si Schottky Diode  06-16-1993  
**********
*SRC=HSMS-286X;HP286X;Diodes;Schottky;400V .5A
.MODEL HP286X D (IS=5E-8 RS=5 N=1.08 BV=7 IBV=10E-5
+ CJO=.18P VJ=.65 M=.5 EG=.69 XTI=2 TT=72P)
* H-P HSMS-284X 400 Volt  .5 Amp  Si Schottky Diode  06-16-1993  
**********
*SRC=HSMS-8101;HP8101;Diodes;Schottky;400V .5A
.MODEL HP8101 D (IS=90N RS=4 N=1.08 BV=5.5 IBV=10U
+ CJO=.23P VJ=.5 M=.5 EG=.69 TT=72P)
* 400 Volt  .5 Amp  Si Schottky Diode  06-16-1993 
* H-P HSMS-8001, HSMS-8101 
**********
*SRC=HSMS-820X;HP820X;Diodes;Schottky;400V .5A
.MODEL HP820X D (IS=4.6E-8 RS=6 N=1.09 BV=7.3 IBV=10E-5
+ CJO=.18P VJ=.5 M=.5 EG=.69 XTI=2 FC=.5 TT=0)
* 400 Volt  .5 Amp  Si Schottky Diode  06-16-1993 
**********
*SRC=HSMS-8202;HP8202;Diodes;Schottky;400V .5A
.MODEL HP8202 D (IS=46N RS=6 N=1.08 BV=7.3 IBV=10U
+ CJO=.18P VJ=.5 M=.5 EG=.69 TT=72P)
* 400 Volt  .5 Amp  Si Schottky Diode  06-16-1993 
* H-P HSMS-8002, HSMS-8202
**********
Siemens GaAs Diodes
**********
*SRC=IRL80A;IRL80A;Diodes;GaAs;3V 60MA
.MODEL IRL80A D (IS=3.70E-17 RS=1.76 N=1.25 BV=3 IBV=10U
+ CJO=25P VJ=.75 M=.333 TT=864N)
* Siemens 3 Volt  60M Amp  .6 us  GaAs Diode  05-12-1993
**********
*SRC=LD242;LD242;Diodes;GaAs;5V .3A
.MODEL LD242 D (IS=1.59N RS=.522 N=2.68 BV=5 IBV=10N
+ CJO=40P VJ=.75 M=.333 TT=1.44U)
* Siemens 5 Volt  .3 Amp  1 us  GaAs Diode  05-12-1993
**********
*SRC=LD261;LD261;Diodes;GaAs;5V 60MA
.MODEL LD261 D (IS=599P RS=.667 N=2.51 BV=5 IBV=10N
+ CJO=40P VJ=.75 M=.333 TT=1.44U)
* Siemens 5 Volt  60M Amp  1 us  GaAs Diode  05-12-1993
**********
*SRC=LD271;LD271;Diodes;GaAs;5V .13A
.MODEL LD271 D (IS=16.3P RS=.755 N=2.01 BV=5 IBV=10N
+ CJO=40P VJ=.75 M=.333 TT=1.44U)
* Siemens 5 Volt  .13 Amp  1 us  GaAs Diode  05-12-1993
**********
*SRC=LD274;LD274;Diodes;GaAs;5V .1A
.MODEL LD274 D (IS=4.64N RS=.633 N=2.85 BV=5 IBV=10N
+ CJO=25P VJ=.75 M=.333 TT=1.44U)
* Siemens 5 Volt  .1 Amp  1 us  GaAs Diode  05-12-1993
**********
*SRC=SFH400;SFH400;Diodes;GaAs;5V .3A
.MODEL SFH400 D (IS=234P RS=.555 N=2.51 BV=5 IBV=10N
+ CJO=40P VJ=.75 M=.333 TT=1.44U)
* Siemens 5 Volt  .3 Amp  1 us  GaAs Diode  05-12-1993
**********
*SRC=SFH405;SFH405;Diodes;GaAs;5V 40MA
.MODEL SFH405 D (IS=199N RS=.389 N=3.85 BV=5 IBV=10N
+ CJO=40P VJ=.75 M=.333 TT=1.44U)
* Siemens 5 Volt  40M Amp  1 us  GaAs Diode  05-12-1993
**********
*SRC=SFH409;SFH409;Diodes;GaAs;5V .1A
.MODEL SFH409 D (IS=215N RS=.466 N=3.85 BV=5 IBV=10N
+ CJO=25P VJ=.75 M=.333 TT=1.44U)
* Siemens 5 Volt  .1 Amp  1 us  GaAs Diode  05-12-1993
**********
*SRC=SFH414;SFH414;Diodes;GaAs;5V .1A
.MODEL SFH414 D (IS=473P RS=.808 N=2.68 BV=5 IBV=1U
+ CJO=25P VJ=.75 M=.333 TT=720N)
* Siemens 5 Volt  .1 Amp  .5 us  GaAs Diode  05-12-1993
**********
*SRC=SFH420;SFH420;Diodes;GaAs;5V .1A
.MODEL SFH420 D (IS=1.45N RS=.747 N=2.85 BV=5 IBV=10N
+ CJO=25P VJ=.75 M=.333 TT=720N)
* Siemens 5 Volt  .1 Amp  .5 us  GaAs Diode  05-12-1993
**********
*SRC=SFH421;SFH421;Diodes;GaAs;5V .1A
.MODEL SFH421 D (IS=11P RS=1.57 N=2.18 BV=5 IBV=10N
+ CJO=25P VJ=.75 M=.333 TT=864N)
* Siemens 5 Volt  .1 Amp  .6 us  GaAs Diode  05-12-1993
**********
*SRC=SFH462;SFH462;Diodes;GaAs;3V 50MA
.MODEL SFH462 D (IS=3.20E-20 RS=5.05 N=1.67 BV=3 IBV=10N
+ CJO=30P VJ=.75 M=.333 TT=144N)
* Siemens 3 Volt  50M Amp  .1 us  GaAs Diode  05-12-1993
**********
*SRC=SFH480;SFH480;Diodes;GaAs;5V .2A
.MODEL SFH480 D (IS=.123F RS=1.72 N=1.34 BV=5 IBV=10N
+ CJO=25P VJ=.75 M=.333 TT=864N)
* Siemens 5 Volt  .2 Amp  .6 us  GaAs Diode  05-12-1993
**********
*SRC=SFH483;SFH483;Diodes;GaAs;5V .2A
.MODEL SFH483 D (IS=617F RS=1.69 N=1.84 BV=5 IBV=10N
+ CJO=25P VJ=.75 M=.333 TT=864N)
* Siemens 5 Volt  .2 Amp  .6 us  GaAs Diode  05-12-1993
**********
*SRC=SFH484;SFH484;Diodes;GaAs;5V .1A
.MODEL SFH484 D (IS=46.4F RS=1.66 N=1.67 BV=5 IBV=10N
+ CJO=25P VJ=.75 M=.333 TT=864N)
* Siemens 5 Volt  .1 Amp  .6 us  GaAs Diode  05-12-1993
**********
*Diotec Rectifier Bridges and 3 Phase Bridges
**********
*SRC=KBU4A;KBU4A;Diodes;Bridge;50V 4A, Full Wave
*SYM=BRIDGE
.SUBCKT KBU4A  2    3   5  4
*              IN1  IN2 +  -
D2 2 5 BU4A
D3 3 5 BU4A
D4 4 3 BU4A
D1 4 2 BU4A
.MODEL BU4A D (IS=10.7N RS=3M N=1.67 BV=50 IBV=5U
+ CJO=165P VJ=.75 M=.333 TT=4.32U)
* Diotec 50 Volt  4 Amp  3 us  Si Diode Bridge 07-03-1993
.ENDS
**********
*SRC=KBU4B;KBU4B;Diodes;Bridge;100V 4A, Full Wave
*SYM=BRIDGE
.SUBCKT KBU4B  2    3   5  4
*              IN1  IN2 +  -
D2 2 5 BU4B
D3 3 5 BU4B
D4 4 3 BU4B
D1 4 2 BU4B
.MODEL BU4B D (IS=10.7N RS=3M N=1.67 BV=100 IBV=5U
+ CJO=165P VJ=.75 M=.333 TT=4.32U)
* Diotec 100 Volt  4 Amp  3 us  Si Diode Bridge 07-03-1993
.ENDS
**********
*SRC=KBU4D;KBU4D;Diodes;Bridge;200V 4A, Full Wave
*SYM=BRIDGE
.SUBCKT KBU4D  2    3   5  4
*              IN1  IN2 +  -
D2 2 5 BU4D
D3 3 5 BU4D
D4 4 3 BU4D
D1 4 2 BU4D
.MODEL BU4D D (IS=10.7N RS=3M N=1.67 BV=200 IBV=5U
+ CJO=165P VJ=.75 M=.333 TT=4.32U)
* Diotec 200 Volt  4 Amp  3 us  Si Diode Bridge 07-03-1993
.ENDS
**********
*SRC=KBU4G;KBU4G;Diodes;Bridge;400V 4A, Full Wave
*SYM=BRIDGE
.SUBCKT KBU4G  2    3   5  4
*              IN1  IN2 +  -
D2 2 5 BU4G
D3 3 5 BU4G
D4 4 3 BU4G
D1 4 2 BU4G
.MODEL BU4G D (IS=10.7N RS=3M N=1.67 BV=400 IBV=5U
+ CJO=165P VJ=.75 M=.333 TT=4.32U)
* Diotec 400 Volt  4 Amp  3 us  Si Diode Bridge 07-03-1993
.ENDS
**********
*SRC=KBU4J;KBU4J;Diodes;Bridge;600V 4A, Full Wave
*SYM=BRIDGE
.SUBCKT KBU4J  2    3   5  4
*              IN1  IN2 +  -
D2 2 5 BU4J
D3 3 5 BU4J
D4 4 3 BU4J
D1 4 2 BU4J
.MODEL BU4J D (IS=10.7N RS=3M N=1.67 BV=600 IBV=5U
+ CJO=165P VJ=.75 M=.333 TT=4.32U)
* Diotec 600 Volt  4 Amp  3 us  Si Diode Bridge 07-03-1993
.ENDS
**********
*SRC=KBU4K;KBU4K;Diodes;Bridge;800V 4A, Full Wave
*SYM=BRIDGE
.SUBCKT KBU4K  2    3   5  4
*              IN1  IN2 +  -
D2 2 5 BU4K
D3 3 5 BU4K
D4 4 3 BU4K
D1 4 2 BU4K
.MODEL BU4K D (IS=10.7N RS=3M N=1.67 BV=800 IBV=7U
+ CJO=165P VJ=.75 M=.333 TT=4.32U)
* Diotec 800 Volt  4 Amp  3 us  Si Diode Bridge 07-03-1993
.ENDS
**********
*SRC=KBU4M;KBU4M;Diodes;Bridge;1000V 4A, Full Wave
*SYM=BRIDGE
.SUBCKT KBU4M  2    3   5  4
*              IN1  IN2 +  -
D2 2 5 BU4M
D3 3 5 BU4M
D4 4 3 BU4M
D1 4 2 BU4M
.MODEL BU4M D (IS=10.7N RS=3M N=1.67 BV=1K IBV=8U
+ CJO=165P VJ=.75 M=.333 TT=4.32U)
* Diotec 1000 Volt  4 Amp  3 us  Si Diode Bridge 07-03-1993
.ENDS
**********
*SRC=KBPC800;KBPC800;Diodes;Bridge;50V 8A, Full Wave
*SYM=BRIDGE
.SUBCKT KBPC800  2    3   5  4
*                IN1  IN2 +  -
D2 2 5 BPC800
D3 3 5 BPC800
D4 4 3 BPC800
D1 4 2 BPC800
.MODEL BPC800 D (IS=18.3N RS=3.2M N=1.72 BV=50 IBV=5U
+ CJO=330P VJ=.75 M=.333 TT=4.32U)
* Diotec 50 Volt  8 Amp  3 us  Si Diode Bridge 07-03-1993
.ENDS
**********
*SRC=KBPC801;KBPC801;Diodes;Bridge;80V 8A, Full Wave
*SYM=BRIDGE
.SUBCKT KBPC801  2    3   5  4
*                IN1  IN2 +  -
D2 2 5 BPC801
D3 3 5 BPC801
D4 4 3 BPC801
D1 4 2 BPC801
.MODEL BPC801 D (IS=18.3N RS=3.2M N=1.72 BV=80 IBV=5.5U
+ CJO=330P VJ=.75 M=.333 TT=4.32U)
* Diotec 80 Volt  8 Amp  3 us  Si Diode Bridge 07-03-1993
.ENDS
**********
*SRC=KBPC802;KBPC802;Diodes;Bridge;160V 8A, Full Wave
*SYM=BRIDGE
.SUBCKT KBPC802  2    3   5  4
*                IN1  IN2 +  -
D2 2 5 BPC802
D3 3 5 BPC802
D4 4 3 BPC802
D1 4 2 BPC802
.MODEL BPC802 D (IS=18.3N RS=3.2M N=1.72 BV=160 IBV=6U
+ CJO=330P VJ=.75 M=.333 TT=4.32U)
* Diotec 160 Volt  8 Amp  3 us  Si Diode Bridge 07-03-1993
.ENDS
**********
*SRC=KBPC804;KBPC804;Diodes;Bridge;250V 8A, Full Wave
*SYM=BRIDGE
.SUBCKT KBPC804  2    3   5  4
*                IN1  IN2 +  -
D2 2 5 BPC804
D3 3 5 BPC804
D4 4 3 BPC804
D1 4 2 BPC804
.MODEL BPC804 D (IS=18.3N RS=3.2M N=1.72 BV=250 IBV=7U
+ CJO=330P VJ=.75 M=.333 TT=4.32U)
* Diotec 250 Volt  8 Amp  3 us  Si Diode Bridge 07-03-1993
.ENDS
**********
*SRC=KBPC806;KBPC806;Diodes;Bridge;500V 8A, Full Wave
*SYM=BRIDGE
.SUBCKT KBPC806  2    3   5  4
*                IN1  IN2 +  -
D2 2 5 BPC806
D3 3 5 BPC806
D4 4 3 BPC806
D1 4 2 BPC806
.MODEL BPC806 D (IS=18.3N RS=3.2M N=1.72 BV=500 IBV=8U
+ CJO=330P VJ=.75 M=.333 TT=4.32U)
* Diotec 500 Volt  8 Amp  3 us  Si Diode Bridge 07-03-1993
.ENDS
**********
*SRC=KBPC808;KBPC808;Diodes;Bridge;800V 8A, Full Wave
*SYM=BRIDGE
.SUBCKT KBPC808  2    3   5  4
*                IN1  IN2 +  -
D2 2 5 BPC808
D3 3 5 BPC808
D4 4 3 BPC808
D1 4 2 BPC808
.MODEL BPC808 D (IS=18.3N RS=3.2M N=1.72 BV=800 IBV=8.5U
+ CJO=330P VJ=.75 M=.333 TT=4.32U)
* Diotec 800 Volt  8 Amp  3 us  Si Diode Bridge 07-03-1993
.ENDS
**********
*SRC=KBPC810;KBPC810;Diodes;Bridge;1000V 8A, Full Wave
*SYM=BRIDGE
.SUBCKT KBPC810  2    3   5  4
*                IN1  IN2 +  -
D2 2 5 BPC810
D3 3 5 BPC810
D4 4 3 BPC810
D1 4 2 BPC810
.MODEL BPC810 D (IS=18.3N RS=3.2M N=1.72 BV=1K IBV=9U
+ CJO=330P VJ=.75 M=.333 TT=4.32U)
* Diotec 1000 Volt  8 Amp  3 us  Si Diode Bridge 07-03-1993
.ENDS
**********
*SRC=KBPC2500;KBPC2500;Diodes;Bridge;50V 25A, Full Wave
*SYM=BRIDGE
.SUBCKT KBPC2500  2    3   5  4
*                 IN1  IN2 +  -
D2 2 5 BPC2500
D3 3 5 BPC2500
D4 4 3 BPC2500
D1 4 2 BPC2500
.MODEL BPC2500 D (IS=679N RS=2.22M N=2.06 BV=50 IBV=10U
+ CJO=1.02N VJ=.75 M=.333 TT=4.32U)
* Diotec 50 Volt  25 Amp  3 us  Si Diode Bridge 07-03-1993
.ENDS
**********
*SRC=KBPC2501;KBPC2501;Diodes;Bridge;100V 25A, Full Wave
*SYM=BRIDGE
.SUBCKT KBPC2501  2    3   5  4
*                 IN1  IN2 +  -
D2 2 5 BPC2501
D3 3 5 BPC2501
D4 4 3 BPC2501
D1 4 2 BPC2501
.MODEL BPC2501 D (IS=679N RS=2.22M N=2.06 BV=100 IBV=12U
+ CJO=1.02N VJ=.75 M=.333 TT=4.32U)
* Diotec 100 Volt  25 Amp  3 us  Si Diode Bridge 07-03-1993
.ENDS
**********
*SRC=KBPC2502;KBPC2502;Diodes;Bridge;200V 25A, Full Wave
*SYM=BRIDGE
.SUBCKT KBPC2502  2    3   5  4
*                 IN1  IN2 +  -
D2 2 5 BPC2502
D3 3 5 BPC2502
D4 4 3 BPC2502
D1 4 2 BPC2502
.MODEL BPC2502 D (IS=679N RS=2.22M N=2.06 BV=200 IBV=13U
+ CJO=1.02N VJ=.75 M=.333 TT=4.32U)
* Diotec 200 Volt  25 Amp  3 us  Si Diode Bridge 07-03-1993
.ENDS
**********
*SRC=KBPC2504;KBPC2504;Diodes;Bridge;400V 25A, Full Wave
*SYM=BRIDGE
.SUBCKT KBPC2504  2    3   5  4
*                 IN1  IN2 +  -
D2 2 5 BPC2504
D3 3 5 BPC2504
D4 4 3 BPC2504
D1 4 2 BPC2504
.MODEL BPC2504 D (IS=679N RS=2.22M N=2.06 BV=400 IBV=14U
+ CJO=1.02N VJ=.75 M=.333 TT=4.32U)
* Diotec 400 Volt  25 Amp  3 us  Si Diode Bridge 07-03-1993
.ENDS
**********
*SRC=KBPC2506;KBPC2506;Diodes;Bridge;600V 25A, Full Wave
*SYM=BRIDGE
.SUBCKT KBPC2506  2    3   5  4
*                 IN1  IN2 +  -
D2 2 5 BPC2506
D3 3 5 BPC2506
D4 4 3 BPC2506
D1 4 2 BPC2506
.MODEL BPC2506 D (IS=679N RS=2.22M N=2.06 BV=600 IBV=15U
+ CJO=1.02N VJ=.75 M=.333 TT=4.32U)
* Diotec 600 Volt  25 Amp  3 us  Si Diode Bridge 07-03-1993
.ENDS
**********
*SRC=KBPC2508;KBPC2508;Diodes;Bridge;800V 25A, Full Wave
*SYM=BRIDGE
.SUBCKT KBPC2508  2    3   5  4
*                 IN1  IN2 +  -
D2 2 5 BPC2508
D3 3 5 BPC2508
D4 4 3 BPC2508
D1 4 2 BPC2508
.MODEL BPC2508 D (IS=679N RS=2.22M N=2.06 BV=800 IBV=17U
+ CJO=1.02N VJ=.75 M=.333 TT=4.32U)
* Diotec 800 Volt  25 Amp  3 us  Si Diode Bridge 07-03-1993
.ENDS
**********
*SRC=KBPC2510;KBPC2510;Diodes;Bridge;1000V 25A, Full Wave
*SYM=BRIDGE
.SUBCKT KBPC2510  2    3   5  4
*                 IN1  IN2 +  -
D2 2 5 BPC2510
D3 3 5 BPC2510
D4 4 3 BPC2510
D1 4 2 BPC2510
.MODEL BPC2510 D (IS=679N RS=2.22M N=2.06 BV=1K IBV=20U
+ CJO=1.02N VJ=.75 M=.333 TT=4.32U)
* Diotec 1000 Volt  25 Amp  3 us  Si Diode Bridge 07-03-1993
.ENDS
**********
*SRC=DB15005;DB15005;Diodes;Bridge;50V 15A, 3 Phase
*SYM=BRIDGE3
.SUBCKT DB15005  1 2 3  4  5
*                + - P1 P2 P3
D1 3 1 B15005
D2 4 1 B15005
D3 5 1 B15005
D4 2 4 B15005
D5 2 3 B15005
D6 2 5 B15005
.MODEL B15005 D (IS=45.3N RS=1.92M N=2.34 BV=50 IBV=2U
+ CJO=618P VJ=.75 M=.333 TT=4.32U)
* Diotec 50 Volt  15 Amp  3 us  Si Diode  07-07-1993
.ENDS
**********
*SRC=DB1501;DB1501;Diodes;Bridge;100V 15A, 3 Phase
*SYM=BRIDGE3
.SUBCKT DB1501  1 2 3  4  5
*               + - P1 P2 P3
D1 3 1 B1501
D2 4 1 B1501
D3 5 1 B1501
D4 2 4 B1501
D5 2 3 B1501
D6 2 5 B1501
.MODEL B1501 D (IS=45.3N RS=1.92M N=2.34 BV=100 IBV=3U
+ CJO=618P VJ=.75 M=.333 TT=4.32U)
* Diotec 100 Volt  15 Amp  3 us  Si Diode  07-07-1993
.ENDS
**********
*SRC=DB1502;DB1502;Diodes;Bridge;200V 15A, 3 Phase
*SYM=BRIDGE3
.SUBCKT DB1502  1 2 3  4  5
*               + - P1 P2 P3
D1 3 1 B1502
D2 4 1 B1502
D3 5 1 B1502
D4 2 4 B1502
D5 2 3 B1502
D6 2 5 B1502
.MODEL B1502 D (IS=45.3N RS=1.92M N=2.34 BV=200 IBV=4U
+ CJO=618P VJ=.75 M=.333 TT=4.32U)
* Diotec 200 Volt  15 Amp  3 us  Si Diode  07-07-1993
.ENDS
**********
*SRC=DB1504;DB1504;Diodes;Bridge;400V 15A, 3 Phase
*SYM=BRIDGE3
.SUBCKT DB1504  1 2 3  4  5
*               + - P1 P2 P3
D1 3 1 B1504
D2 4 1 B1504
D3 5 1 B1504
D4 2 4 B1504
D5 2 3 B1504
D6 2 5 B1504
.MODEL B1504 D (IS=45.3N RS=1.92M N=2.34 BV=400 IBV=5U
+ CJO=618P VJ=.75 M=.333 TT=4.32U)
* Diotec 400 Volt  15 Amp  3 us  Si Diode  07-07-1993
.ENDS
**********
*SRC=DB1506;DB1506;Diodes;Bridge;600V 15A, 3 Phase
*SYM=BRIDGE3
.SUBCKT DB1506  1 2 3  4  5
*               + - P1 P2 P3
D1 3 1 B1506
D2 4 1 B1506
D3 5 1 B1506
D4 2 4 B1506
D5 2 3 B1506
D6 2 5 B1506
.MODEL B1506 D (IS=45.3N RS=1.92M N=2.34 BV=600 IBV=6U
+ CJO=618P VJ=.75 M=.333 TT=4.32U)
* Diotec 600 Volt  15 Amp  3 us  Si Diode  07-07-1993
.ENDS
**********
*SRC=DB1508;DB1508;Diodes;Bridge;800V 15A, 3 Phase
*SYM=BRIDGE3
.SUBCKT DB1508  1 2 3  4  5
*               + - P1 P2 P3
D1 3 1 B1508
D2 4 1 B1508
D3 5 1 B1508
D4 2 4 B1508
D5 2 3 B1508
D6 2 5 B1508
.MODEL B1508 D (IS=45.3N RS=1.92M N=2.34 BV=800 IBV=6U
+ CJO=618P VJ=.75 M=.333 TT=4.32U)
* Diotec 800 Volt  15 Amp  3 us  Si Diode  07-07-1993
.ENDS
**********
*SRC=DB1510;DB1510;Diodes;Bridge;1000V 15A, 3 Phase
*SYM=BRIDGE3
.SUBCKT DB1510  1 2 3  4  5
*               + - P1 P2 P3
D1 3 1 B1510
D2 4 1 B1510
D3 5 1 B1510
D4 2 4 B1510
D5 2 3 B1510
D6 2 5 B1510
.MODEL B1510 D (IS=45.3N RS=1.92M N=2.34 BV=1K IBV=7U
+ CJO=618P VJ=.75 M=.333 TT=4.32U)
* Diotec 1000 Volt  15 Amp  3 us  Si Diode  07-07-1993
.ENDS
**********
*SRC=DB1512;DB1512;Diodes;Bridge;1200V 15A, 3 Phase
*SYM=BRIDGE3
.SUBCKT DB1512  1 2 3  4  5
*               + - P1 P2 P3
D1 3 1 B1512
D2 4 1 B1512
D3 5 1 B1512
D4 2 4 B1512
D5 2 3 B1512
D6 2 5 B1512
.MODEL B1512 D (IS=45.3N RS=1.92M N=2.34 BV=1.2K IBV=8U
+ CJO=618P VJ=.75 M=.333 TT=4.32U)
* Diotec 1200 Volt  15 Amp  3 us  Si Diode  07-07-1993
.ENDS
**********
*SRC=DB1514;DB1514;Diodes;Bridge;1400V 15A, 3 Phase
*SYM=BRIDGE3
.SUBCKT DB1514  1 2 3  4  5
*               + - P1 P2 P3
D1 3 1 B1514
D2 4 1 B1514
D3 5 1 B1514
D4 2 4 B1514
D5 2 3 B1514
D6 2 5 B1514
.MODEL B1514 D (IS=45.3N RS=1.92M N=2.34 BV=1.4K IBV=9U
+ CJO=618P VJ=.75 M=.333 TT=4.32U)
* Diotec 1400 Volt  15 Amp  3 us  Si Diode  07-07-1993
.ENDS
**********
*SRC=DB25005;DB25005;Diodes;Bridge;50V 25A, 3 Phase
*SYM=BRIDGE3
.SUBCKT DB25005  1 2 3  4  5
*                + - P1 P2 P3
D1 3 1 B25005
D2 4 1 B25005
D3 5 1 B25005
D4 2 4 B25005
D5 2 3 B25005
D6 2 5 B25005
.MODEL B25005 D (IS=24.4N RS=2.64M N=1.97 BV=50 IBV=2U
+ CJO=1.02N VJ=.75 M=.333 TT=4.32U)
* Diotec 50 Volt  25 Amp  3 us  Si Diode  07-07-1993
.ENDS
**********
*SRC=DB2501;DB2501;Diodes;Bridge;100V 25A, 3 Phase
*SYM=BRIDGE3
.SUBCKT DB2501  1 2 3  4  5
*               + - P1 P2 P3
D1 3 1 B2501
D2 4 1 B2501
D3 5 1 B2501
D4 2 4 B2501
D5 2 3 B2501
D6 2 5 B2501
.MODEL B2501 D (IS=24.5N RS=2.67M N=1.97 BV=100 IBV=3U
+ CJO=1.02N VJ=.75 M=.333 TT=4.32U)
* Diotec 100 Volt  25 Amp  3 us  Si Diode  07-07-1993
.ENDS
**********
*SRC=DB2502;DB2502;Diodes;Bridge;200V 25A, 3 Phase
*SYM=BRIDGE3
.SUBCKT DB2502  1 2 3  4  5
*               + - P1 P2 P3
D1 3 1 B2502
D2 4 1 B2502
D3 5 1 B2502
D4 2 4 B2502
D5 2 3 B2502
D6 2 5 B2502
.MODEL B2502 D (IS=24.5N RS=2.67M N=1.97 BV=200 IBV=4U
+ CJO=1.02N VJ=.75 M=.333 TT=4.32U)
* Diotec 200 Volt  25 Amp  3 us  Si Diode  07-07-1993
.ENDS
**********
*SRC=DB2504;DB2504;Diodes;Bridge;400V 25A, 3 Phase
*SYM=BRIDGE3
.SUBCKT DB2504  1 2 3  4  5
*               + - P1 P2 P3
D1 3 1 B2504
D2 4 1 B2504
D3 5 1 B2504
D4 2 4 B2504
D5 2 3 B2504
D6 2 5 B2504
.MODEL B2504 D (IS=24.5N RS=2.67M N=1.97 BV=400 IBV=5U
+ CJO=1.02N VJ=.75 M=.333 TT=4.32U)
* Diotec 400 Volt  25 Amp  3 us  Si Diode  07-07-1993
.ENDS
**********
*SRC=DB2506;DB2506;Diodes;Bridge;600V 25A, 3 Phase
*SYM=BRIDGE3
.SUBCKT DB2506  1 2 3  4  5
*               + - P1 P2 P3
D1 3 1 B2506
D2 4 1 B2506
D3 5 1 B2506
D4 2 4 B2506
D5 2 3 B2506
D6 2 5 B2506
.MODEL B2506 D (IS=24.5N RS=2.67M N=1.97 BV=600 IBV=6U
+ CJO=1.02N VJ=.75 M=.333 TT=4.32U)
* Diotec 600 Volt  25 Amp  3 us  Si Diode  07-07-1993
.ENDS
**********
*SRC=DB2508;DB2508;Diodes;Bridge;800V 25A, 3 Phase
*SYM=BRIDGE3
.SUBCKT DB2508  1 2 3  4  5
*               + - P1 P2 P3
D1 3 1 B2508
D2 4 1 B2508
D3 5 1 B2508
D4 2 4 B2508
D5 2 3 B2508