* DIGITAL LIBRARY ECL10K and ECL100K
*
* The Global Setting DIGDRVZ may need to be set to a higher value
* than the default value of 20K.  The input pulldown resistors of
* each part are at 50K which would display a high impedance state
* instead of a 0.  Setting the DIGDRVZ to 200K should solve this.
*
* ----------------------------------------------------------- 10100 ------
*  Quad 2-Input Nor Gate With Strobe
*
*  The MECL Data Book, 1993, Motorola Pages 3-3 to 3-4
*  bss    12/16/96
*
.SUBCKT 10100  AIN1 AIN2 BIN1 BIN2 CIN1 CIN2 DIN1 DIN2 COMMON
+		AOUT BOUT COUT DOUT
+     optional: VEE=$G_ECL_10K_VEE  VCC1=$G_ECL_10K_VCC1
+               VCC2=$G_ECL_10K_VCC2
+     params: MNTYMXDLY=0 IO_LEVEL=0

U1 pulldn(9) VCC1 VEE
+		AIN1 AIN2 BIN1 BIN2 CIN1 CIN2 DIN1 DIN2 COMMON
+		IO_10K_PULLDN IO_LEVEL={IO_LEVEL}

U2 nora(3,4) VCC1 VEE
+     AIN1 AIN2 COMMON BIN1 BIN2 COMMON CIN1 CIN2 COMMON
+		DIN1 DIN2 COMMON
+		AOUT_O BOUT_O COUT_O DOUT_O
+     DLY_10100 IO_10K_IN MNTYMXDLY={MNTYMXDLY} IO_LEVEL={IO_LEVEL}

U3 bufa(4) VCC2 VEE
+		AOUT_O BOUT_O COUT_O DOUT_O AOUT BOUT COUT DOUT
+		D0_GATE IO_10K_OUT MNTYMXDLY={MNTYMXDLY} IO_LEVEL={IO_LEVEL}

.model DLY_10100 ugate (tplhMN=1ns tplhTY=2ns tplhMX=2.9ns 
+								 tphlMN=1ns tphlTY=2ns tphlMX=2.9ns)

.ENDS  10100
*
*
* ----------------------------------------------------------- 10101 ------
*  Quad Or/Nor Gate
*
*  The MECL Data Book, 1993, Motorola Pages 3-5 to 3-6
*  bss    12/16/96
*
.SUBCKT 10101  AIN BIN CIN DIN COMMON
+		AOUT AOUTBAR BOUT BOUTBAR COUT COUTBAR DOUT DOUTBAR
+     optional: VEE=$G_ECL_10K_VEE  VCC1=$G_ECL_10K_VCC1
+               VCC2=$G_ECL_10K_VCC2
+     params: MNTYMXDLY=0 IO_LEVEL=0

U1 pulldn(5) VCC1 VEE
+		AIN BIN CIN DIN COMMON
+		IO_10K_PULLDN IO_LEVEL={IO_LEVEL}

U2 ora(2,4) VCC1 VEE
+		AIN COMMON BIN COMMON CIN COMMON DIN COMMON
+		AOUT_O BOUT_O COUT_O DOUT_O
+     DLY_10101 IO_10K_IN MNTYMXDLY={MNTYMXDLY} IO_LEVEL={IO_LEVEL}

U3 bufa(4) VCC2 VEE
+		AOUT_O BOUT_O COUT_O DOUT_O
+		AOUT BOUT COUT DOUT
+		D0_GATE IO_10K_OUT MNTYMXDLY={MNTYMXDLY} IO_LEVEL={IO_LEVEL}

U4 inva(4) VCC2 VEE
+		AOUT_O BOUT_O COUT_O DOUT_O
+		AOUTBAR BOUTBAR COUTBAR DOUTBAR
+		D0_GATE IO_10K_OUT MNTYMXDLY={MNTYMXDLY} IO_LEVEL={IO_LEVEL}

.model DLY_10101 ugate (tplhMN=1ns tplhTY=2ns tplhMX=2.9ns 
+								tphlMN=1ns tphlTY=2ns tphlMX=2.9ns)

.ENDS  10101
*
*
* ----------------------------------------------------------- 10102 ------
*  Quad 2-Input Nor Gate
*
*  The MECL Data Book, 1993, Motorola Pages 3-7 to 3-8
*  bss    12/18/96
*
.SUBCKT 10102  AIN1 AIN2 BIN1 BIN2 CIN1 CIN2 DIN1 DIN2
+		AOUTBAR BOUTBAR COUTBAR DOUT DOUTBAR
+     optional: VEE=$G_ECL_10K_VEE  VCC1=$G_ECL_10K_VCC1
+               VCC2=$G_ECL_10K_VCC2
+     params: MNTYMXDLY=0 IO_LEVEL=0

U1 pulldn(8) VCC1 VEE
+		AIN1 AIN2 BIN1 BIN2 CIN1 CIN2 DIN1 DIN2
+		IO_10K_PULLDN IO_LEVEL={IO_LEVEL}

U2 nora(2,4) VCC1 VEE
+		AIN1 AIN2 BIN1 BIN2 CIN1 CIN2 DIN1 DIN2
+		AOUT_O BOUT_O COUT_O DOUT_O
+     DLY_10102 IO_10K_IN MNTYMXDLY={MNTYMXDLY} IO_LEVEL={IO_LEVEL}

U3 bufa(4) VCC2 VEE
+		AOUT_O BOUT_O COUT_O DOUT_O
+		AOUTBAR BOUTBAR COUTBAR DOUTBAR
+		D0_GATE IO_10K_OUT MNTYMXDLY={MNTYMXDLY} IO_LEVEL={IO_LEVEL}

U4 inv VCC2 VEE
+		DOUT_O DOUT
+		D0_GATE IO_10K_OUT MNTYMXDLY={MNTYMXDLY} IO_LEVEL={IO_LEVEL}

.model DLY_10102 ugate (tplhMN=1ns tplhTY=2ns tplhMX=2.9ns 
+								tphlMN=1ns tphlTY=2ns tphlMX=2.9ns)

.ENDS  10102
*
*
* ----------------------------------------------------------- 10103 ------
*  Quad 2-Input Or Gate
*
*  The MECL Data Book, 1993, Motorola Pages 3-9 to 3-10
*  bss    12/18/96
*
.SUBCKT 10103  AIN1 AIN2 BIN1 BIN2 CIN1 CIN2 DIN1 DIN2
+		AOUT BOUT COUT COUTBAR DOUT
+     optional: VEE=$G_ECL_10K_VEE  VCC1=$G_ECL_10K_VCC1
+               VCC2=$G_ECL_10K_VCC2
+     params: MNTYMXDLY=0 IO_LEVEL=0

U1 pulldn(8) VCC1 VEE
+		AIN1 AIN2 BIN1 BIN2 CIN1 CIN2 DIN1 DIN2
+		IO_10K_PULLDN IO_LEVEL={IO_LEVEL}

U2 ora(2,4) VCC1 VEE
+		AIN1 AIN2 BIN1 BIN2 CIN1 CIN2 DIN1 DIN2
+		AOUT_O BOUT_O COUT_O DOUT_O
+     DLY_10103 IO_10K_IN MNTYMXDLY={MNTYMXDLY} IO_LEVEL={IO_LEVEL}

U3 bufa(4) VCC2 VEE
+		AOUT_O BOUT_O COUT_O DOUT_O
+		AOUT BOUT COUT DOUT
+		D0_GATE IO_10K_OUT MNTYMXDLY={MNTYMXDLY} IO_LEVEL={IO_LEVEL}

U4 inv VCC2 VEE
+		COUT_O COUTBAR
+		D0_GATE IO_10K_OUT MNTYMXDLY={MNTYMXDLY} IO_LEVEL={IO_LEVEL}

.model DLY_10103 ugate (tplhMN=1ns tplhTY=2ns tplhMX=2.9ns 
+								tphlMN=1ns tphlTY=2ns tphlMX=2.9ns)

.ENDS  10103
*
*
* ----------------------------------------------------------- 10104 ------
*  Quad 2-Input And Gate
*
*  The MECL Data Book, 1993, Motorola Pages 3-11 to 3-12
*  bss    12/18/96
*
.SUBCKT 10104  AIN1 AIN2 BIN1 BIN2 CIN1 CIN2 DIN1 DIN2
+		AOUT BOUT COUT DOUT DOUTBAR
+     optional: VEE=$G_ECL_10K_VEE  VCC1=$G_ECL_10K_VCC1
+               VCC2=$G_ECL_10K_VCC2
+     params: MNTYMXDLY=0 IO_LEVEL=0

U1 pulldn(8) VCC1 VEE
+		AIN1 AIN2 BIN1 BIN2 CIN1 CIN2 DIN1 DIN2
+		IO_10K_PULLDN IO_LEVEL={IO_LEVEL}

U2 anda(2,4) VCC1 VEE
+		AIN1 AIN2 BIN1 BIN2 CIN1 CIN2 DIN1 DIN2
+		AOUT_O BOUT_O COUT_O DOUT_O
+     DLY_10104 IO_10K_IN MNTYMXDLY={MNTYMXDLY} IO_LEVEL={IO_LEVEL}

U3 bufa(4) VCC2 VEE
+		AOUT_O BOUT_O COUT_O DOUT_O
+		AOUT BOUT COUT DOUT
+		D0_GATE IO_10K_OUT MNTYMXDLY={MNTYMXDLY} IO_LEVEL={IO_LEVEL}

U4 inv VCC2 VEE
+		DOUT_O DOUTBAR
+		D0_GATE IO_10K_OUT MNTYMXDLY={MNTYMXDLY} IO_LEVEL={IO_LEVEL}

.model DLY_10104 ugate (tplhMN=1ns tplhTY=2.7ns tplhMX=4ns 
+								tphlMN=1ns tphlTY=2.7ns tphlMX=4ns)

.ENDS  10104
*
*
* ----------------------------------------------------------- 10105 ------
*  Triple 2-3-2 Input Or/Nor Gate
*
*  The MECL Data Book, 1993, Motorola Pages 3-13 to 3-14
*  bss    12/18/96
*
.SUBCKT 10105  AIN1 AIN2 BIN1 BIN2 BIN3 CIN1 CIN2
+		AOUT AOUTBAR BOUT BOUTBAR COUT COUTBAR
+     optional: VEE=$G_ECL_10K_VEE  VCC1=$G_ECL_10K_VCC1
+               VCC2=$G_ECL_10K_VCC2
+     params: MNTYMXDLY=0 IO_LEVEL=0

U1 pulldn(7) VCC1 VEE
+		AIN1 AIN2 BIN1 BIN2 BIN3 CIN1 CIN2
+		IO_10K_PULLDN IO_LEVEL={IO_LEVEL}

U2 ora(2,2) VCC1 VEE
+		AIN1 AIN2 CIN1 CIN2
+		AOUT_O COUT_O
+     DLY_10105 IO_10K_IN MNTYMXDLY={MNTYMXDLY} IO_LEVEL={IO_LEVEL}

U3 or(3) VCC1 VEE
+		BIN1 BIN2 BIN3
+		BOUT_O
+     DLY_10105 IO_10K_IN MNTYMXDLY={MNTYMXDLY} IO_LEVEL={IO_LEVEL}

U4 bufa(3) VCC2 VEE
+		AOUT_O BOUT_O COUT_O
+		AOUT BOUT COUT
+		D0_GATE IO_10K_OUT MNTYMXDLY={MNTYMXDLY} IO_LEVEL={IO_LEVEL}

U5 inva(3) VCC2 VEE
+		AOUT_O BOUT_O COUT_O
+		AOUTBAR BOUTBAR COUTBAR
+		D0_GATE IO_10K_OUT MNTYMXDLY={MNTYMXDLY} IO_LEVEL={IO_LEVEL}

.model DLY_10105 ugate (tplhMN=1ns tplhTY=2ns tplhMX=2.9ns 
+								tphlMN=1ns tphlTY=2ns tphlMX=2.9ns)

.ENDS  10105
*
*
* ----------------------------------------------------------- 10106 ------
*  Triple 4-3-3 Input Nor Gate
*
*  The MECL Data Book, 1993, Motorola Pages 3-15 to 3-16
*  bss    12/18/96
*
.SUBCKT 10106  AIN1 AIN2 AIN3 AIN4 BIN1 BIN2 BIN3 CIN1 CIN2 CIN3
+		AOUT BOUT COUT
+     optional: VEE=$G_ECL_10K_VEE  VCC1=$G_ECL_10K_VCC1
+               VCC2=$G_ECL_10K_VCC2
+     params: MNTYMXDLY=0 IO_LEVEL=0

U1 pulldn(10) VCC1 VEE
+		AIN1 AIN2 AIN3 AIN4 BIN1 BIN2 BIN3 CIN1 CIN2 CIN3
+		IO_10K_PULLDN IO_LEVEL={IO_LEVEL}

U2 nora(3,2) VCC1 VEE
+		BIN1 BIN2 BIN3 CIN1 CIN2 CIN3
+		BOUT_O COUT_O
+     DLY_10106 IO_10K_IN MNTYMXDLY={MNTYMXDLY} IO_LEVEL={IO_LEVEL}

U3 nor(4) VCC1 VEE
+		AIN1 AIN2 AIN3 AIN4
+		AOUT_O
+     DLY_10106 IO_10K_IN MNTYMXDLY={MNTYMXDLY} IO_LEVEL={IO_LEVEL}

U4 bufa(3) VCC2 VEE
+		AOUT_O BOUT_O COUT_O
+		AOUT BOUT COUT
+		D0_GATE IO_10K_OUT MNTYMXDLY={MNTYMXDLY} IO_LEVEL={IO_LEVEL}

.model DLY_10106 ugate (tplhMN=1ns tplhTY=2ns tplhMX=2.9ns 
+								tphlMN=1ns tphlTY=2ns tphlMX=2.9ns)

.ENDS  10106
*
*
* ----------------------------------------------------------- 10107 ------
*  Triple 2-Input Exclusive Or/Exclusive Nor
*
*  The MECL Data Book, 1993, Motorola Pages 3-17 to 3-18
*  bss    12/18/96
*
.SUBCKT 10107  AIN1 AIN2 AOUT AOUTBAR
+     optional: VEE=$G_ECL_10K_VEE  VCC1=$G_ECL_10K_VCC1
+               VCC2=$G_ECL_10K_VCC2
+     params: MNTYMXDLY=0 IO_LEVEL=0

U1 pulldn(2) VCC1 VEE
+		AIN1 AIN2
+		IO_10K_PULLDN IO_LEVEL={IO_LEVEL}

U2 xor VCC1 VEE
+		AIN1 AIN2 AOUT_O
+     DLY_10107 IO_10K_IN MNTYMXDLY={MNTYMXDLY} IO_LEVEL={IO_LEVEL}

U3 buf VCC2 VEE
+		AOUT_O AOUT
+		D0_GATE IO_10K_OUT MNTYMXDLY={MNTYMXDLY} IO_LEVEL={IO_LEVEL}

U4 inv VCC2 VEE
+		AOUT_O AOUTBAR
+		D0_GATE IO_10K_OUT MNTYMXDLY={MNTYMXDLY} IO_LEVEL={IO_LEVEL}

.model DLY_10107 ugate (tplhMN=1.1ns tplhTY=2.8ns tplhMX=3.7ns 
+								tphlMN=1.1ns tphlTY=2.8ns tphlMX=3.7ns)

.ENDS  10107
*
*
* ----------------------------------------------------------- 10109 ------
*  Dual 4-5-Input Or/Nor Gate
*
*  The MECL Data Book, 1993, Motorola Pages 3-19 to 3-20
*  bss    12/18/96
*
.SUBCKT 10109  AIN1 AIN2 AIN3 AIN4 BIN1 BIN2 BIN3 BIN4 BIN5
+		AOUT AOUTBAR BOUT BOUTBAR
+     optional: VEE=$G_ECL_10K_VEE  VCC1=$G_ECL_10K_VCC1
+               VCC2=$G_ECL_10K_VCC2
+     params: MNTYMXDLY=0 IO_LEVEL=0

U1 pulldn(9) VCC1 VEE
+		AIN1 AIN2 AIN3 AIN4 BIN1 BIN2 BIN3 BIN4 BIN5
+		IO_10K_PULLDN IO_LEVEL={IO_LEVEL}

U2 or(4) VCC1 VEE
+		AIN1 AIN2 AIN3 AIN4
+		AOUT_O
+     DLY_10109 IO_10K_IN MNTYMXDLY={MNTYMXDLY} IO_LEVEL={IO_LEVEL}

U3 or(5) VCC1 VEE
+		BIN1 BIN2 BIN3 BIN4 BIN5
+		BOUT_O
+     DLY_10109 IO_10K_IN MNTYMXDLY={MNTYMXDLY} IO_LEVEL={IO_LEVEL}

U4 bufa(2) VCC2 VEE
+		AOUT_O BOUT_O
+		AOUT BOUT
+		D0_GATE IO_10K_OUT MNTYMXDLY={MNTYMXDLY} IO_LEVEL={IO_LEVEL}

U5 inva(2) VCC2 VEE
+		AOUT_O BOUT_O
+		AOUTBAR BOUTBAR
+		D0_GATE IO_10K_OUT MNTYMXDLY={MNTYMXDLY} IO_LEVEL={IO_LEVEL}

.model DLY_10109 ugate (tplhMN=1ns tplhTY=2ns tplhMX=2.9ns 
+								tphlMN=1ns tphlTY=2ns tphlMX=2.9ns)

.ENDS  10109
*
*
* ----------------------------------------------------------- 10110 ------
*  Dual 3-Input 3-Output Or Gate
*
*  The MECL Data Book, 1993, Motorola Pages 3-21 to 3-22
*  bss    12/18/96
*
.SUBCKT 10110  AIN1 AIN2 AIN3 AOUT1 AOUT2 AOUT3
+     optional: VEE=$G_ECL_10K_VEE  VCC1=$G_ECL_10K_VCC1
+               VCC2=$G_ECL_10K_VCC2
+     params: MNTYMXDLY=0 IO_LEVEL=0

U1 pulldn(3) VCC1 VEE
+		AIN1 AIN2 AIN3
+		IO_10K_PULLDN IO_LEVEL={IO_LEVEL}

U2 or(3) VCC1 VEE
+		AIN1 AIN2 AIN3
+		AOUT_O
+     DLY_10110 IO_10K_IN MNTYMXDLY={MNTYMXDLY} IO_LEVEL={IO_LEVEL}

U3 bufa(3) VCC2 VEE
+		AOUT_O AOUT_O AOUT_O
+		AOUT1 AOUT2 AOUT3
+		D0_GATE IO_10K_OUT MNTYMXDLY={MNTYMXDLY} IO_LEVEL={IO_LEVEL}

.model DLY_10110 ugate (tplhMN=1.4ns tplhTY=2.4ns tplhMX=3.5ns 
+								tphlMN=1.4ns tphlTY=2.4ns tphlMX=3.5ns)

.ENDS  10110
*
*
* ----------------------------------------------------------- 10111 ------
*  Dual 3-Input 3-Output Nor Gate
*
*  The MECL Data Book, 1993, Motorola Pages 3-23 to 3-24
*  bss    12/18/96
*
.SUBCKT 10111  AIN1 AIN2 AIN3 AOUT1 AOUT2 AOUT3
+     optional: VEE=$G_ECL_10K_VEE  VCC1=$G_ECL_10K_VCC1
+               VCC2=$G_ECL_10K_VCC2
+     params: MNTYMXDLY=0 IO_LEVEL=0

U1 pulldn(3) VCC1 VEE
+		AIN1 AIN2 AIN3
+		IO_10K_PULLDN IO_LEVEL={IO_LEVEL}

U2 nor(3) VCC1 VEE
+		AIN1 AIN2 AIN3
+		AOUT_O
+     DLY_10111 IO_10K_IN MNTYMXDLY={MNTYMXDLY} IO_LEVEL={IO_LEVEL}

U3 bufa(3) VCC2 VEE
+		AOUT_O AOUT_O AOUT_O
+		AOUT1 AOUT2 AOUT3
+		D0_GATE IO_10K_OUT MNTYMXDLY={MNTYMXDLY} IO_LEVEL={IO_LEVEL}

.model DLY_10111 ugate (tplhMN=1.4ns tplhTY=2.4ns tplhMX=3.5ns 
+								tphlMN=1.4ns tphlTY=2.4ns tphlMX=3.5ns)

.ENDS  10111
*
*
* ----------------------------------------------------------- 10113 ------
*  Quad Exclusive Or Gate
*
*  The MECL Data Book, 1993, Motorola Pages 3-25 to 3-26
*  bss    12/18/96
*
.SUBCKT 10113  AIN1 AIN2 BIN1 BIN2 CIN1 CIN2 DIN1 DIN2 EBAR
+		AOUT BOUT COUT DOUT
+     optional: VEE=$G_ECL_10K_VEE  VCC1=$G_ECL_10K_VCC1
+               VCC2=$G_ECL_10K_VCC2
+     params: MNTYMXDLY=0 IO_LEVEL=0

U1 pulldn(9) VCC1 VEE
+		AIN1 AIN2 BIN1 BIN2 CIN1 CIN2 DIN1 DIN2 EBAR
+		IO_10K_PULLDN IO_LEVEL={IO_LEVEL}

U2 inv VCC1 VEE
+		EBAR EBAR_B
+     DLY_10113A IO_10K_IN MNTYMXDLY={MNTYMXDLY} IO_LEVEL={IO_LEVEL}

U3 xora(4) VCC1 VEE
+		AIN1 AIN2 BIN1 BIN2 CIN1 CIN2 DIN1 DIN2
+		AOUT_O BOUT_O COUT_O DOUT_O
+		DLY_10113B IO_10K_IN MNTYMXDLY={MNTYMXDLY} IO_LEVEL={IO_LEVEL}

U4 anda(2,4) VCC2 VEE
+		EBAR_B AOUT_O EBAR_B BOUT_O EBAR_B COUT_O EBAR_B DOUT_O
+		AOUT BOUT COUT DOUT
+		D0_GATE IO_10K_OUT MNTYMXDLY={MNTYMXDLY} IO_LEVEL={IO_LEVEL}

.model DLY_10113A ugate (tplhMN=1.5ns tplhTY=3.4ns tplhMX=5ns 
+								tphlMN=1.5ns tphlTY=3.4ns tphlMX=5ns)

.model DLY_10113B ugate (tplhMN=1.3ns tplhTY=2.6ns tplhMX=4.5ns 
+								tphlMN=1.3ns tphlTY=2.6ns tphlMX=4.5ns)

.ENDS  10113
*
*
* ----------------------------------------------------------- 10114 ------
*  Triple Line Receiver
*
*  The MECL Data Book, 1993, Motorola Pages 3-27 to 3-28
*  bss    12/23/96
*
.SUBCKT 10114  AIN AINBAR AOUT AOUTBAR
+     optional: VEE=$G_ECL_10K_VEE  VCC1=$G_ECL_10K_VCC1
+               VCC2=$G_ECL_10K_VCC2
+     params: MNTYMXDLY=0 IO_LEVEL=0

U1 inv VCC1 VEE
+		AINBAR AIN_I
+     D0_GATE IO_10K_IN MNTYMXDLY={MNTYMXDLY} IO_LEVEL={IO_LEVEL}

U2 or(2) VCC1 VEE
+		AIN AIN_I
+		AOUT_O
+		DLY_10114 IO_10K_IN MNTYMXDLY={MNTYMXDLY} IO_LEVEL={IO_LEVEL}

U3 buf VCC2 VEE
+		AOUT_O
+		AOUT
+		D0_GATE IO_10K_OUT MNTYMXDLY={MNTYMXDLY} IO_LEVEL={IO_LEVEL}

U4 inv VCC2 VEE
+		AOUT_O
+		AOUTBAR
+		D0_GATE IO_10K_OUT MNTYMXDLY={MNTYMXDLY} IO_LEVEL={IO_LEVEL}

.model DLY_10114 ugate (tplhMN=1ns tplhTY=2.4ns tplhMX=4ns 
+								tphlMN=1ns tphlTY=2.4ns tphlMX=4ns)

.ENDS  10114
*
*
* ----------------------------------------------------------- 10115 ------
*  Quad Line Receiver
*
*  The MECL Data Book, 1993, Motorola Pages 3-29 to 3-30
*  bss    12/23/96
*
.SUBCKT 10115  AIN AINBAR AOUT
+     optional: VEE=$G_ECL_10K_VEE  VCC1=$G_ECL_10K_VCC1
+               VCC2=$G_ECL_10K_VCC2
+     params: MNTYMXDLY=0 IO_LEVEL=0

U1 inv VCC1 VEE
+		AINBAR AIN_I
+     D0_GATE IO_10K_IN MNTYMXDLY={MNTYMXDLY} IO_LEVEL={IO_LEVEL}

U2 buf VCC1 VEE
+		AIN AIN_B
+     D0_GATE IO_10K_IN MNTYMXDLY={MNTYMXDLY} IO_LEVEL={IO_LEVEL}

U3 or(2) VCC1 VEE
+		AIN_B AIN_I
+		AOUT
+		DLY_10115 IO_10K_OUT MNTYMXDLY={MNTYMXDLY} IO_LEVEL={IO_LEVEL}

.model DLY_10115 ugate (tplhMN=1ns tplhMX=2.9ns 
+								tphlMN=1ns tphlMX=2.9ns)

.ENDS  10115
*
*
* ----------------------------------------------------------- 10116 ------
*  Triple Line Receiver
*
*  The MECL Data Book, 1993, Motorola Pages 3-31 to 3-32
*  bss    12/23/96
*
.SUBCKT 10116  AIN AINBAR AOUT AOUTBAR
+     optional: VEE=$G_ECL_10K_VEE  VCC1=$G_ECL_10K_VCC1
+               VCC2=$G_ECL_10K_VCC2
+     params: MNTYMXDLY=0 IO_LEVEL=0

U1 inv VCC1 VEE
+		AINBAR AIN_I
+     D0_GATE IO_10K_IN MNTYMXDLY={MNTYMXDLY} IO_LEVEL={IO_LEVEL}

U2 or(2) VCC1 VEE
+		AIN AIN_I
+		AOUT_O
+		DLY_10116 IO_10K_IN MNTYMXDLY={MNTYMXDLY} IO_LEVEL={IO_LEVEL}

U3 buf VCC2 VEE
+		AOUT_O
+		AOUT
+		D0_GATE IO_10K_OUT MNTYMXDLY={MNTYMXDLY} IO_LEVEL={IO_LEVEL}

U4 inv VCC2 VEE
+		AOUT_O
+		AOUTBAR
+		D0_GATE IO_10K_OUT MNTYMXDLY={MNTYMXDLY} IO_LEVEL={IO_LEVEL}

.model DLY_10116 ugate (tplhMN=1ns tplhTY=2ns tplhMX=2.9ns 
+								tphlMN=1ns tphlTY=2ns tphlMX=2.9ns)

.ENDS  10116
*
*
* ----------------------------------------------------------- 10117 ------
*  Dual 2-Wide 2-3-Input Or-And/Or-And-Invert Gate
*
*  The MECL Data Book, 1993, Motorola Pages 3-33 to 3-34
*  bss    12/18/96
*
.SUBCKT 10117  A1IN1 A1IN2 A2IN1 A2IN2 B1IN1 B1IN2 B2IN1 B2IN2 AB2IN
+		AOUT AOUTBAR BOUT BOUTBAR
+     optional: VEE=$G_ECL_10K_VEE  VCC1=$G_ECL_10K_VCC1
+               VCC2=$G_ECL_10K_VCC2
+     params: MNTYMXDLY=0 IO_LEVEL=0

U1 pulldn(9) VCC1 VEE
+		A1IN1 A1IN2 A2IN1 A2IN2 B1IN1 B1IN2 B2IN1 B2IN2 AB2IN
+		IO_10K_PULLDN IO_LEVEL={IO_LEVEL}

U2 ora(2,2) VCC1 VEE
+		A1IN1 A1IN2 B1IN1 B1IN2 A1OUT B1OUT
+     D0_GATE IO_10K_IN MNTYMXDLY={MNTYMXDLY} IO_LEVEL={IO_LEVEL}

U3 ora(3,2) VCC1 VEE
+		A2IN1 A2IN2 AB2IN B2IN1 B2IN2 AB2IN
+		A2OUT B2OUT
+		D0_GATE IO_10K_IN MNTYMXDLY={MNTYMXDLY} IO_LEVEL={IO_LEVEL}

U4 anda(2,2) VCC1 VEE
+		A1OUT A2OUT B1OUT B2OUT
+		AOUT_O BOUT_O
+		DLY_10117 IO_10K_IN MNTYMXDLY={MNTYMXDLY} IO_LEVEL={IO_LEVEL}

U5 bufa(2) VCC2 VEE
+		AOUT_O BOUT_O
+		AOUT BOUT
+		D0_GATE IO_10K_OUT MNTYMXDLY={MNTYMXDLY} IO_LEVEL={IO_LEVEL}

U6 inva(2) VCC2 VEE
+		AOUT_O BOUT_O
+		AOUTBAR BOUTBAR
+		D0_GATE IO_10K_OUT MNTYMXDLY={MNTYMXDLY} IO_LEVEL={IO_LEVEL}

.model DLY_10117 ugate (tplhMN=1.4ns tplhTY=2.3ns tplhMX=3.4ns 
+								tphlMN=1.4ns tphlTY=2.3ns tphlMX=3.4ns)

.ENDS  10117
*
*
* ----------------------------------------------------------- 10118 ------
*  Dual 2-Wide 3-Input Or-And Gate
*
*  The MECL Data Book, 1993, Motorola Pages 3-35 to 3-36
*  bss    12/19/96
*
.SUBCKT 10118  A1IN1 A1IN2 A1IN3 A2IN1 A2IN2 B1IN1 B1IN2 B1IN3
+		B2IN1 B2IN2 AB2IN AOUT BOUT
+     optional: VEE=$G_ECL_10K_VEE  VCC1=$G_ECL_10K_VCC1
+               VCC2=$G_ECL_10K_VCC2
+     params: MNTYMXDLY=0 IO_LEVEL=0

U1 pulldn(11) VCC1 VEE
+		A1IN1 A1IN2 A1IN3 A2IN1 A2IN2 B1IN1 B1IN2 B1IN3
+		B2IN1 B2IN2 AB2IN
+		IO_10K_PULLDN IO_LEVEL={IO_LEVEL}

U2 ora(3,4) VCC1 VEE
+		A1IN1 A1IN2 A1IN3 A2IN1 A2IN2 AB2IN B1IN1 B1IN2 B1IN3
+		B2IN1 B2IN2 AB2IN AOUT1 AOUT2 BOUT1 BOUT2
+     DLY_10118 IO_10K_IN MNTYMXDLY={MNTYMXDLY} IO_LEVEL={IO_LEVEL}

U3 anda(2,2) VCC2 VEE
+		AOUT1 AOUT2 BOUT1 BOUT2
+		AOUT BOUT
+		D0_GATE IO_10K_OUT MNTYMXDLY={MNTYMXDLY} IO_LEVEL={IO_LEVEL}

.model DLY_10118 ugate (tplhMN=1.4ns tplhTY=2.3ns tplhMX=3.4ns 
+								tphlMN=1.4ns tphlTY=2.3ns tphlMX=3.4ns)

.ENDS  10118
*
*
* ----------------------------------------------------------- 10119 ------
*  4-Wide 4-3-3-3-Input Or-And Gate
*
*  The MECL Data Book, 1993, Motorola Pages 3-37 to 3-38
*  bss    12/19/96
*
.SUBCKT 10119  A1IN1 A1IN2 A1IN3 A1IN4 A2IN1 A2IN2 A3IN1 A3IN2
+		A4IN1 A4IN2 A4IN3 A23IN AOUT
+     optional: VEE=$G_ECL_10K_VEE  VCC1=$G_ECL_10K_VCC1
+               VCC2=$G_ECL_10K_VCC2
+     params: MNTYMXDLY=0 IO_LEVEL=0

U1 pulldn(12) VCC1 VEE
+		A1IN1 A1IN2 A1IN3 A1IN4 A2IN1 A2IN2 A3IN1 A3IN2
+		A4IN1 A4IN2 A4IN3 A23IN
+		IO_10K_PULLDN IO_LEVEL={IO_LEVEL}

U2 or(4) VCC1 VEE
+		A1IN1 A1IN2 A1IN3 A1IN4
+		OUT1
+     D0_GATE IO_10K_IN MNTYMXDLY={MNTYMXDLY} IO_LEVEL={IO_LEVEL}

U3 ora(3,3) VCC1 VEE
+		A2IN1 A2IN2 A23IN A3IN1 A3IN2 A23IN A4IN1 A4IN2 A4IN3
+		OUT2 OUT3 OUT4
+     D0_GATE IO_10K_IN MNTYMXDLY={MNTYMXDLY} IO_LEVEL={IO_LEVEL}

U4 and(4) VCC2 VEE
+		OUT1 OUT2 OUT3 OUT4
+		AOUT
+		DLY_10119 IO_10K_OUT MNTYMXDLY={MNTYMXDLY} IO_LEVEL={IO_LEVEL}

.model DLY_10119 ugate (tplhMN=1.4ns tplhTY=2.3ns tplhMX=3.4ns 
+								tphlMN=1.4ns tphlTY=2.3ns tphlMX=3.4ns)

.ENDS  10119
*
*
* ----------------------------------------------------------- 10121 ------
*  4-Wide Or-And/Or-And-Invert Gate
*
*  The MECL Data Book, 1993, Motorola Pages 3-39 to 3-40
*  bss    12/19/96
*
.SUBCKT 10121  A1IN1 A1IN2 A1IN3 A2IN1 A2IN2 A3IN1 A3IN2
+		A4IN1 A4IN2 A4IN3 A23IN AOUT AOUTBAR
+     optional: VEE=$G_ECL_10K_VEE  VCC1=$G_ECL_10K_VCC1
+               VCC2=$G_ECL_10K_VCC2
+     params: MNTYMXDLY=0 IO_LEVEL=0

U1 pulldn(11) VCC1 VEE
+		A1IN1 A1IN2 A1IN3 A2IN1 A2IN2 A3IN1 A3IN2
+		A4IN1 A4IN2 A4IN3 A23IN
+		IO_10K_PULLDN IO_LEVEL={IO_LEVEL}

U2 ora(3,4) VCC1 VEE
+		A1IN1 A1IN2 A1IN3 A2IN1 A2IN2 A23IN A3IN1 A3IN2 A23IN 
+		A4IN1 A4IN2 A4IN3
+		OUT1 OUT2 OUT3 OUT4
+     D0_GATE IO_10K_IN MNTYMXDLY={MNTYMXDLY} IO_LEVEL={IO_LEVEL}

U3 and(4) VCC1 VEE
+		OUT1 OUT2 OUT3 OUT4
+		AOUT_O
+		DLY_10121 IO_10K_IN MNTYMXDLY={MNTYMXDLY} IO_LEVEL={IO_LEVEL}

U4 buf VCC2 VEE
+		AOUT_O
+		AOUT
+		D0_GATE IO_10K_OUT MNTYMXDLY={MNTYMXDLY} IO_LEVEL={IO_LEVEL}

U5 inv VCC2 VEE
+		AOUT_O
+		AOUTBAR
+		D0_GATE IO_10K_OUT MNTYMXDLY={MNTYMXDLY} IO_LEVEL={IO_LEVEL}

.model DLY_10121 ugate (tplhMN=1.4ns tplhTY=2.3ns tplhMX=3.4ns 
+								tphlMN=1.4ns tphlTY=2.3ns tphlMX=3.4ns)

.ENDS  10121
*
*
* ----------------------------------------------------------- 10123 ------
*  Triple 4-3-3 Input Bus Driver
*
*  The MECL Data Book, 1993, Motorola Pages 3-41 to 3-42
*  bss    12/23/96
*
.SUBCKT 10123  AIN1 AIN2 AIN3 AIN4 BIN1 BIN2 BIN3 CIN1 CIN2 CIN3
+		AOUT BOUT COUT
+     optional: VEE=$G_ECL_10K_VEE  VCC1=$G_ECL_10K_VCC1
+               VCC2=$G_ECL_10K_VCC2
+     params: MNTYMXDLY=0 IO_LEVEL=0

U1 pulldn(10) VCC1 VEE
+		AIN1 AIN2 AIN3 AIN4 BIN1 BIN2 BIN3 CIN1 CIN2 CIN3
+		IO_10K_PULLDN IO_LEVEL={IO_LEVEL}

U2 nor(4) VCC1 VEE
+		AIN1 AIN2 AIN3 AIN4
+		AOUT_O
+     DLY_10123 IO_10K_IN MNTYMXDLY={MNTYMXDLY} IO_LEVEL={IO_LEVEL}

U3 nora(3,2) VCC1 VEE
+		BIN1 BIN2 BIN3 CIN1 CIN2 CIN3
+		BOUT_O COUT_O
+     DLY_10123 IO_10K_IN MNTYMXDLY={MNTYMXDLY} IO_LEVEL={IO_LEVEL}

U4 bufa(3) VCC2 VEE
+		AOUT_O BOUT_O COUT_O
+		AOUT BOUT COUT
+		D0_GATE IO_10K_OUT MNTYMXDLY={MNTYMXDLY} IO_LEVEL={IO_LEVEL}

.model DLY_10123 ugate (tplhMN=1.2ns tplhTY=3ns tplhMX=4.4ns 
+								tphlMN=1.2ns tphlTY=3ns tphlMX=4.4ns)

.ENDS  10123
*
*
* ----------------------------------------------------------- 10124 ------
*  Quad TTL to MECL Translator
*
*  The MECL Data Book, 1993, Motorola Pages 3-43 to 3-45
*  bss    12/23/96
*
.SUBCKT 10124  AIN BIN CIN DIN COMMON AOUT AOUTBAR BOUT BOUTBAR
+		COUT COUTBAR DOUT DOUTBAR
+     optional: VEE=$G_ECL_10K_VEE  VCC1=$G_ECL_10K_VCC1
+               VCC2=$G_ECL_10K_VCC2 DPWR=$G_DPWR DGND=$G_DGND
+     params: MNTYMXDLY=0 IO_LEVEL=0

U1 anda(2,4) DPWR DGND
+		AIN COMMON BIN COMMON CIN COMMON DIN COMMON
+		AOUT_O BOUT_O COUT_O DOUT_O
+		DLY_10124 IO_S IO_LEVEL={IO_LEVEL}

U2 bufa(4) VCC2 VEE
+		AOUT_O BOUT_O COUT_O DOUT_O
+		AOUT BOUT COUT DOUT
+     D0_GATE IO_10K_OUT MNTYMXDLY={MNTYMXDLY} IO_LEVEL={IO_LEVEL}

U3 inva(4) VCC2 VEE
+		AOUT_O BOUT_O COUT_O DOUT_O
+		AOUTBAR BOUTBAR COUTBAR DOUTBAR
+     D0_GATE IO_10K_OUT MNTYMXDLY={MNTYMXDLY} IO_LEVEL={IO_LEVEL}

.model DLY_10124 ugate (tplhMN=1ns tplhTY=3.5ns tplhMX=6ns 
+								tphlMN=1ns tphlTY=3.5ns tphlMX=6ns)

.ENDS  10124
*
*
* ----------------------------------------------------------- 10125 ------
*  Quad MECL to TTL Translator
*
*  The MECL Data Book, 1993, Motorola Pages 3-46 to 3-48
*  bss    12/23/96
*
.SUBCKT 10125  AIN AINBAR AOUT
+     optional: VEE=$G_ECL_10K_VEE  VCC1=$G_ECL_10K_VCC1
+               VCC2=$G_ECL_10K_VCC2 DPWR=$G_DPWR DGND=$G_DGND
+     params: MNTYMXDLY=0 IO_LEVEL=0

U1 inv VCC1 VEE
+		AINBAR AIN_I
+     D0_GATE IO_10K_IN MNTYMXDLY={MNTYMXDLY} IO_LEVEL={IO_LEVEL}

U2 buf VCC1 VEE
+		AIN AIN_B
+     D0_GATE IO_10K_IN MNTYMXDLY={MNTYMXDLY} IO_LEVEL={IO_LEVEL}

U3 or(2) DPWR DGND
+		AIN_B AIN_I
+		AOUT
+		DLY_10125 IO_S MNTYMXDLY={MNTYMXDLY} IO_LEVEL={IO_LEVEL}

.model DLY_10125 ugate (tplhMN=1ns tplhTY=4.5ns tplhMX=6ns 
+								tphlMN=1ns tphlTY=4.5ns tphlMX=6ns)

.ENDS  10125
*
*
* ----------------------------------------------------------- 10130 ------
*  Dual Latch
*
*  The MECL Data Book, 1993, Motorola Pages 3-59 to 3-60
*  bss    12/23/96
*
.SUBCKT 10130  S1 D1 R1 CE1BAR CBAR S2 D2 R2 CE2BAR
+		Q1 Q1BAR Q2 Q2BAR
+     optional: VEE=$G_ECL_10K_VEE  VCC1=$G_ECL_10K_VCC1
+               VCC2=$G_ECL_10K_VCC2
+     params: MNTYMXDLY=0 IO_LEVEL=0

U1 pulldn(9) VCC1 VEE
+		S1 D1 R1 CE1BAR CBAR S2 D2 R2 CE2BAR
+		IO_10K_PULLDN IO_LEVEL={IO_LEVEL}

U2 nora(2,2) VCC1 VEE
+		CE1BAR CBAR CE2BAR CBAR
+		CLK1 CLK2
+     D0_GATE IO_10K_IN MNTYMXDLY={MNTYMXDLY} IO_LEVEL={IO_LEVEL}

U3 inva(2) VCC1 VEE
+		CLK1 CLK2 CLK1BAR CLK2BAR
+     D0_GATE IO_10K_IN MNTYMXDLY={MNTYMXDLY} IO_LEVEL={IO_LEVEL}

U4 nanda(2,4) VCC1 VEE
+		CLK1BAR R1 CLK2BAR R2 CLK1BAR S1 CLK2BAR S2
+		RESET1 RESET2 SET1 SET2
+     D0_GATE IO_10K_IN MNTYMXDLY={MNTYMXDLY} IO_LEVEL={IO_LEVEL}

U5 dltch(1) VCC2 VEE
+		SET1 RESET1 CLK1 D1 Q1 Q1BAR
+		DLY_10130 IO_10K_OUT MNTYMXDLY={MNTYMXDLY} IO_LEVEL={IO_LEVEL}

U6 dltch(1) VCC2 VEE
+		SET2 RESET2 CLK2 D2 Q2 Q2BAR
+		DLY_10130 IO_10K_OUT MNTYMXDLY={MNTYMXDLY} IO_LEVEL={IO_LEVEL}

.model DLY_10130 ugff (tppcqlhMN=1ns tppcqlhTY=2.7ns tppcqlhMX=3.5ns
+		tppcqhlMN=1ns tppcqhlTY=2.7ns tppcqhlMX=3.5ns
+		tpgqlhMN=1ns tpgqlhMX=4ns tpgqhlMN=1ns tpgqhlMX=4ns
+		tpdqlhMN=1ns tpdqlhTY=2.5ns tpdqlhMX=3.5ns
+		tpdqhlMN=1ns tpdqhlTY=2.5ns tpdqhlMX=3.5ns
+		tsudgMN=2.5ns thdgMN=1.5ns)

.ENDS  10130
*
*
* ----------------------------------------------------------- 10131 ------
*  Dual Type D Master-Slave Flip-Flop
*
*  The MECL Data Book, 1993, Motorola Pages 3-61 to 3-62
*  bss    12/24/96
*
.SUBCKT 10131  S1 D1 R1 CE1BAR CC S2 D2 R2 CE2BAR
+		Q1 Q1BAR Q2 Q2BAR
+     optional: VEE=$G_ECL_10K_VEE  VCC1=$G_ECL_10K_VCC1
+               VCC2=$G_ECL_10K_VCC2
+     params: MNTYMXDLY=0 IO_LEVEL=0

U1 pulldn(9) VCC1 VEE
+		S1 D1 R1 CE1BAR CC S2 D2 R2 CE2BAR
+		IO_10K_PULLDN IO_LEVEL={IO_LEVEL}

U2 bufa(2) VCC1 VEE
+		D1 D2
+		D1B D2B
+     D0_GATE IO_10K_IN MNTYMXDLY={MNTYMXDLY} IO_LEVEL={IO_LEVEL}

U3 ora(2,2) VCC1 VEE
+		CE1BAR CC CE2BAR CC
+		CLK1 CLK2
+     D0_GATE IO_10K_IN MNTYMXDLY={MNTYMXDLY} IO_LEVEL={IO_LEVEL}

U4 inva(4) VCC1 VEE
+		S1 R1 S2 R2
+		S1BAR R1BAR S2BAR R2BAR
+     D0_GATE IO_10K_IN MNTYMXDLY={MNTYMXDLY} IO_LEVEL={IO_LEVEL}

U5 dff(1) VCC2 VEE
+		S1BAR R1BAR CLK1 D1B Q1 Q1BAR
+		DLY_10131 IO_10K_OUT MNTYMXDLY={MNTYMXDLY} IO_LEVEL={IO_LEVEL}

U6 dff(1) VCC2 VEE
+		S2BAR R2BAR CLK2 D2B Q2 Q2BAR
+		DLY_10131 IO_10K_OUT MNTYMXDLY={MNTYMXDLY} IO_LEVEL={IO_LEVEL}

.model DLY_10131 ueff (tppcqlhMN=1.8ns tppcqlhTY=2.8ns tppcqlhMX=4.3ns
+		tppcqhlMN=1.8ns tppcqhlTY=2.8ns tppcqhlMX=4.3ns
+		tpclkqlhMN=1.8ns tpclkqlhTY=3ns tpclkqlhMX=4.5ns
+		tpclkqhlMN=1.8ns tpclkqhlTY=3ns tpclkqhlMX=4.5ns
+		tsudclkMN=2.5ns thdclkMN=1.5ns)

.ENDS  10131
*
*
* ----------------------------------------------------------- 10132 ------
*  Dual Multiplexer With Latch and Common Reset
*
*  The MECL Data Book, 1993, Motorola Pages 3-63 to 3-64
*  bss    12/30/96
*
.SUBCKT 10132  A D11 D12 D21 D22 CE0BAR CE1BAR CC R
+		Q1 Q1BAR Q2 Q2BAR
+     optional: VEE=$G_ECL_10K_VEE  VCC1=$G_ECL_10K_VCC1
+               VCC2=$G_ECL_10K_VCC2
+     params: MNTYMXDLY=0 IO_LEVEL=0

U1 pulldn(9) VCC1 VEE
+		A D11 D12 D21 D22 CE0BAR CE1BAR CC R
+		IO_10K_PULLDN IO_LEVEL={IO_LEVEL}

U2 inva(2) VCC1 VEE
+		A R ABAR RBAR
+     D0_GATE IO_10K_IN MNTYMXDLY={MNTYMXDLY} IO_LEVEL={IO_LEVEL}

U3 ao(2,2) VCC1 VEE
+		ABAR D11 A D12
+		D1
+     D0_GATE IO_10K_IN MNTYMXDLY={MNTYMXDLY} IO_LEVEL={IO_LEVEL}

U4 ao(2,2) VCC1 VEE
+		ABAR D21 A D22
+		D2
+     D0_GATE IO_10K_IN MNTYMXDLY={MNTYMXDLY} IO_LEVEL={IO_LEVEL}

U5 nora(2,2) VCC1 VEE
+		CE0BAR CC CE1BAR CC
+		CLK0 CLK1
+     D0_GATE IO_10K_IN MNTYMXDLY={MNTYMXDLY} IO_LEVEL={IO_LEVEL}

U6 ora(2,2) VCC1 VEE
+		CLK0 RBAR CLK1 RBAR
+		RESET1 RESET2
+     D0_GATE IO_10K_IN MNTYMXDLY={MNTYMXDLY} IO_LEVEL={IO_LEVEL}

U7 dltch(1) VCC1 VEE
+		$D_HI RESET1 CLK0 D1 Q1_O Q1BAR_O
+		D0_GFF IO_10K_IN MNTYMXDLY={MNTYMXDLY} IO_LEVEL={IO_LEVEL}

U8 dltch(1) VCC1 VEE
+		$D_HI RESET2 CLK1 D2 Q2_O Q2BAR_O
+		D0_GFF IO_10K_IN MNTYMXDLY={MNTYMXDLY} IO_LEVEL={IO_LEVEL}

U9 pindly(4,0,9) VCC2 VEE
+		Q1_O Q1BAR_O Q2_O Q2BAR_O
+		A D11 D12 D21 D22 RESET1 RESET2 CLK0 CLK1
+		Q1 Q1BAR Q2 Q2BAR
+		IO_10K_OUT MNTYMXDLY={MNTYMXDLY} IO_LEVEL={IO_LEVEL}
+
+	BOOLEAN:
+		SELECT={CHANGED(A,0)}
+		DATA1={CHANGED(D11,0) | CHANGED(D12,0)}
+		DATA2={CHANGED(D21,0) | CHANGED(D22,0)}
+		R1={CHANGED_HL(RESET1,0)}
+		R2={CHANGED_HL(RESET2,0)}
+		CLOCK1={CHANGED_LH(CLK0,0)}
+		CLOCK2={CHANGED_LH(CLK1,0)}
+
+	PINDLY:
+		Q1 Q1BAR = {
+			CASE(
+				SELECT, DELAY(1ns,-1,4.6ns),
+				DATA1, DELAY(1ns,-1,3.3ns),
+				CLOCK1, DELAY(1ns,-1,5.7ns),
+				R1, DELAY(1ns,-1,3.8ns),
+				DELAY(2ns,-1,6.7ns))}
+
+		Q2 Q2BAR = {
+			CASE(
+				SELECT, DELAY(1ns,-1,4.6ns),
+				DATA2, DELAY(1ns,-1,3.3ns),
+				CLOCK2, DELAY(1ns,-1,5.7ns),
+				R2, DELAY(1ns,-1,3.8ns),
+				DELAY(2ns,-1,6.7ns))}

U10 constraint(7) VCC1 VEE
+		A D11 D12 D21 D22 CLK0 CLK1
+		IO_10K_IN IO_LEVEL={IO_LEVEL}
+
+	SETUP_HOLD:
+		CLOCK HL=CLK0
+		DATA(1)=A
+		SETUPTIME=3.5ns
+		HOLDTIME=1ns
+		MESSAGE="Constraint violation versus CC and CE0BAR clock input."
+
+	SETUP_HOLD:
+		CLOCK HL=CLK1
+		DATA(1)=A
+		SETUPTIME=3.5ns
+		HOLDTIME=1ns
+		MESSAGE="Constraint violation versus CC and CE1BAR clock input."
+
+	SETUP_HOLD:
+		CLOCK HL=CLK0
+		DATA(2)=D11 D12
+		SETUPTIME=2.5ns
+		HOLDTIME=1.5ns
+		MESSAGE="Constraint violation versus CC and CE0BAR clock input."
+
+	SETUP_HOLD:
+		CLOCK HL=CLK1
+		DATA(2)=D21 D22
+		SETUPTIME=2.5ns
+		HOLDTIME=1.5ns
+		MESSAGE="Constraint violation versus CC and CE1BAR clock input."

.ENDS  10132
*
*
* ----------------------------------------------------------- 10133 ------
*  Quad Latch
*
*  The MECL Data Book, 1993, Motorola Pages 3-65 to 3-66
*  bss    1/2/97
*
.SUBCKT 10133  D0 G0BAR D1 CE0BAR CC CE1BAR D2 G1BAR D3
+		Q0 Q1 Q2 Q3
+     optional: VEE=$G_ECL_10K_VEE  VCC1=$G_ECL_10K_VCC1
+               VCC2=$G_ECL_10K_VCC2
+     params: MNTYMXDLY=0 IO_LEVEL=0

U1 pulldn(9) VCC1 VEE
+		D0 G0BAR D1 CE0BAR CC CE1BAR D2 G1BAR D3
+		IO_10K_PULLDN IO_LEVEL={IO_LEVEL}

U2 ora(2,2) VCC1 VEE
+		CE0BAR CC CE1BAR CC
+		CLK0 CLK1
+     D0_GATE IO_10K_IN MNTYMXDLY={MNTYMXDLY} IO_LEVEL={IO_LEVEL}

U3 dltch(2) VCC1 VEE
+		$D_HI $D_HI CLK0 D0 D1 $D_NC $D_NC Q0BAR Q1BAR
+		D0_GFF IO_10K_IN MNTYMXDLY={MNTYMXDLY} IO_LEVEL={IO_LEVEL}

U4 dltch(2) VCC1 VEE
+		$D_HI $D_HI CLK1 D2 D3 $D_NC $D_NC Q2BAR Q3BAR
+		D0_GFF IO_10K_IN MNTYMXDLY={MNTYMXDLY} IO_LEVEL={IO_LEVEL}

U5 nora(2,4) VCC1 VEE
+		Q0BAR G0BAR Q1BAR G0BAR Q2BAR G1BAR Q3BAR G1BAR
+		Q0_O Q1_O Q2_O Q3_O
+     D0_GATE IO_10K_IN MNTYMXDLY={MNTYMXDLY} IO_LEVEL={IO_LEVEL}

U6 pindly(4,0,8) VCC2 VEE
+		Q0_O Q1_O Q2_O Q3_O
+		D0 D1 D2 D3 G0BAR G1BAR CLK0 CLK1
+		Q0 Q1 Q2 Q3
+		IO_10K_OUT MNTYMXDLY={MNTYMXDLY} IO_LEVEL={IO_LEVEL}
+
+	BOOLEAN:
+		ENAB1={CHANGED(G0BAR,0)}
+		ENAB2={CHANGED(G1BAR,0)}
+
+	PINDLY:
+		Q0 Q1 = {
+			CASE(
+				ENAB1, DELAY(1ns,2ns,3.1ns),
+				DELAY(1ns,4ns,5.4ns))}
+
+		Q2 Q3 = {
+			CASE(
+				ENAB2, DELAY(1ns,2ns,3.1ns),
+				DELAY(1ns,4ns,5.4ns))}

U7 constraint(6) VCC1 VEE
+		D0 D1 D2 D3 CLK0 CLK1
+		IO_10K_IN IO_LEVEL={IO_LEVEL}
+
+	SETUP_HOLD:
+		CLOCK HL=CLK0
+		DATA(2)=D0 D1
+		SETUPTIME=2.5ns
+		HOLDTIME=1.5ns
+		MESSAGE="Constraint violation versus CC and CE0BAR clock input."
+
+	SETUP_HOLD:
+		CLOCK HL=CLK1
+		DATA(2)=D2 D3
+		SETUPTIME=2.5ns
+		HOLDTIME=1.5ns
+		MESSAGE="Constraint violation versus CC and CE1BAR clock input."

.ENDS  10133
*
*
* ----------------------------------------------------------- 10134 ------
*  Dual Multiplexer With Latch
*