*BSS138 ELECTRICAL MODEL (SOT-23 Single N-Ch DMOS) 
*-----------------------
.SUBCKT  BSS138_FC  20  10  30
Rg     10    1    1
M1      2    1    3    3    DMOS    L=1u   W=1u
.MODEL DMOS NMOS (VTO={1.3*{-0.002*TEMP+1.05}}  KP={-0.0014*TEMP+0.685} 
+ THETA=0.086  VMAX=2.2E5  LEVEL=3)
Cgs     1    3    40p
Rd     20    4    0.2 TC=0.0065
Dds     3    4    DDS
.MODEL     DDS    D(BV={50*{0.00084*TEMP+0.979}}   M=0.36  CJO=23p   VJ=0.8)
Dbody   3   20    DBODY
.MODEL   DBODY    D(IS=1.4E-13   N=1   RS=40m   TT=100n)
Ra      4    2    0.3 TC=0.0065
Rs      3    5    10m
Ls      5    30   .5n
M2      1    8    6    6   INTER
E2      8    6    4    1   2
.MODEL   INTER    NMOS(VTO=0  KP=10   LEVEL=1)
Cgdmax  7    4    68p
Rcgd    7    4    10meg
Dgd     6    4    DGD
Rdgd    4    6    10meg
.MODEL     DGD    D(M=0.3   CJO=68p   VJ=0.4)
M3      7    9    1    1   INTER
E3      9    1    4    1   -2
.ENDS BSS138_FC 
*FDP5680 ELECTRICAL MODEL 
*-------------------------------------
.SUBCKT FDP5680_FC 20 10 30 
*20=DRAIN 10=GATE 30=SOURCE
Rg 10 1 1
M1 2 1 3 3 DMOS L=1u W=1u
.MODEL DMOS NMOS(VTO={2*{-2.296E-3*{TEMP-27}+1.625}} KP={-.306*{TEMP-27}+90.3} 
+THETA=0.066667 VMAX=1E5 LEVEL=3)
Cgs 1 3 1806p
Rd 20 4  3.5E-3 TC=0.006
Dds 3 4 DDS
.MODEL DDS D(BV={60+.027*{TEMP-27}} M=5.18E-1 VJ=9.52E-1 CJO=734p)
Dbody 3 20 DBODY
.MODEL DBODY D(IS=3.07E-11 N=1.16098 RS=0.000223 TT=100n)
Ra 4 2 3.5E-3 TC=0.006
Rs 3 5 0.5m
Ls 5 30 0.5n
M2 1 8 6 6 INTER
E2 8 6 4 1 2
.MODEL INTER NMOS(VTO=0 KP=10 LEVEL=1)
Cgdmax 7 4 1092p
Rcgd 7 4 10meg
Dgd 6 4 DGD
Rdgd 4 6 10meg
.MODEL DGD D(M=3.41E-1 VJ=1.92E-2 CJO=1092p)
M3 7 9 1 1 INTER
E3 9 1 4 1 -2
.ENDS FDP5680_FC 
*ST 5/24/00 
**FDP5690 ELECTRICAL MODEL 
*-------------------------------------
.SUBCKT FDP5690_FC 20 10 30 
*20=DRAIN 10=GATE 30=SOURCE
Rg 10 1 1
M1 2 1 3 3 DMOS L=1u W=1u
.MODEL DMOS NMOS(VTO={2*{-2.04E-3*{TEMP-27}+1.55}} KP={-0.0969*{TEMP-27}+49.5} 
+THETA=0.066667 VMAX=1.75E5 LEVEL=3)
Cgs 1 3 1050p
Rd 20 4  7E-4 TC=0.006
Dds 3 4 DDS
.MODEL DDS D(BV={60+5.7E-2*{TEMP-27}} M=4.99E-1 VJ=7.5E-1 CJO=502p)
Dbody 3 20 DBODY
.MODEL DBODY D(IS=3.24E-11 N=1.175226 RS=0.00034 TT=100n)
Ra 4 2 7E-4 TC=0.006
Rs 3 5 0.5m
Ls 5 30 0.5n
M2 1 8 6 6 INTER
E2 8 6 4 1 2
.MODEL INTER NMOS(VTO=0 KP=10 LEVEL=1)
Cgdmax 7 4 940p
Rcgd 7 4 10meg
Dgd 6 4 DGD
Rdgd 4 6 10meg
.MODEL DGD D(M=5.5E-1 VJ=6.28E-2 CJO=940p)
M3 7 9 1 1 INTER
E3 9 1 4 1 -2
.ENDS FDP5690_FC 
*ST 5/24/00 
**FDP6030BL ELECTRICAL MODEL 
*-------------------------------------
.SUBCKT FDP6030BL_FC 20 10 30 
*20=DRAIN 10=GATE 30=SOURCE
Rg 10 1 1
M1 2 1 3 3 DMOS L=1u W=1u
.MODEL DMOS NMOS(VTO={2*{-.00237*{TEMP-27}+1.1411}} KP={-.15*{TEMP-27}+55.4} 
+THETA=.1 VMAX=1.5E5 LEVEL=3)
Cgs 1 3 1108p
Rd 20 4 5.28m TC=.008
Dds 3 4 DDS
.MODEL DDS D(BV={29.4+2.3E-2*{TEMP-25}} M=.442 VJ=.919 CJO=502p)
Dbody 3 20 DBODY
.MODEL DBODY D(IS=4.07E-11 N=1.17736 RS=.007655 TT=100n)
Ra 4 2 5.28m TC=.008
Rs 3 5 0.5m
Ls 5 30 0.5n
M2 1 8 6 6 INTER
E2 8 6 4 1 2
.MODEL INTER NMOS(VTO=0 KP=10 LEVEL=1)
Cgdmax 7 4 814.143p
Rcgd 7 4 10meg
Dgd 6 4 DGD
.MODEL DGD D(M=.275 VJ=8.07E-3 CJO=814.143p)
M3 7 9 1 1 INTER
E3 9 1 4 1 -2
.ENDS FDP6030BL_FC 
*TW 5/23/00 
**FDP6030L ELECTRICAL MODEL 
* ------------------------
.SUBCKT  FDP6030L_FC 20  10  30
Rg     10    1    3
M1      2    1    3    3    DMOS    L=1u   W=1u
.MODEL DMOS NMOS (VTO={2.1*{-0.0025*TEMP+1.0625}}  KP={-0.08*TEMP+37}  THETA=0.096  VMAX=4E5  LEVEL=3)
Cgs     1    3    1300p
Rd     20    4    2m TC=0.0052
Dds     3    4    DDS
.MODEL     DDS    D(BV={30*{0.001232*TEMP+0.9692}}   M=0.377  CJO=1083p   VJ=1.22)
Dbody   3   20    DBODY
.MODEL   DBODY    D(IS=1.4E-13   N=1   RS=37.9m   TT=55n)
Ra      4    2    2m TC=0.0052
Rs      3    5    0.2m
Ls      5    30   5n
M2      1    8    6    6   INTER
E2      8    6    4    1   2
.MODEL   INTER    NMOS(VTO=0  KP=10   LEVEL=1)
Cgdmax  7    4    1900p
Rcgd    7    4    10meg
Dgd     6    4    DGD
Rdgd    4    6    10meg
.MODEL     DGD    D(M=0.5   CJO=1200p   VJ=0.4)
M3      7    9    1    1   INTER
E3      9    1    4    1   -2
.ENDS FDP6030L_FC 
*
.SUBCKT   6030LTHM_FC   50  40  100
Rop       50   60   1meg                         ; From input power, use ideal
Cop       60   70   1u   IC=0                    ; opamp to get energy W(t),
E_W       40   70   40   60  1meg                ; assume Rin=infinite & Ro=0
E_Pave    80   40   VALUE = {V(40,70)/(TIME+1n)} ; Get average power by W(t)/t
R80       80   40   1k
E_Tjc    100   40   VALUE = {V(80,40)*2*V(90,40)}; Tja=Pave(t)*RJC*rjc(t)
R100     100   40   1k                             ; where RJC=1.2 deg/W
R90       90   40   1k
E_rjc     90   40   table {TIME} =              ; Normalized FDP6030L Single Pulsed rjc(t) 
+ (0.00001, 0.022853) 
+ (0.000015, 0.02799) 
+ (0.00002, 0.03232) 
+ (0.00003, 0.039583) 
+ (0.00004, 0.045707) 
+ (0.00005, 0.051102) 
+ (0.00007, 0.060465) 
+ (0.0001, 0.072269) 
+ (0.0002, 0.102204) 
+ (0.000299, 0.125874) 
+ (0.0004, 0.145186) 
+ (0.0005, 0.161404) 
+ (0.000698, 0.191381) 
+ (0.001, 0.228536) 
+ (0.0015, 0.279898) 
+ (0.002001, 0.321014) 
+ (0.002995, 0.383532) 
+ (0.004, 0.43045) 
+ (0.005, 0.466497) 
+ (0.007019, 0.518902) 
+ (0.01, 0.567218) 
+ (0.01479, 0.614871) 
+ (0.020815, 0.654644) 
+ (0.030075, 0.693922) 
+ (0.040382, 0.723533) 
+ (0.049664, 0.742936) 
+ (0.069676, 0.774638) 
+ (0.100235, 0.808819) 
+ (0.149725, 0.844508) 
+ (0.199661, 0.869305) 
+ (0.297795, 0.898022) 
+ (0.398993, 0.91482) 
+ (0.499729, 0.925716) 
+ (0.700469, 0.940445) 
+ (0.998995, 0.955408) 
+ (1.5, 0.968511) 
+ (1.99706, 0.975731) 
+ (3, 0.984415) 
+ (4, 0.989822) 
+ (5, 0.992366) 
+ (7, 0.994063) 
+ (10, 1)
.ENDS 6030LTHM_FC 
 
* FDP6670AL PRELIMINARY ELECTRICAL MODEL (SO-8 Single N-Ch DMOS) 
* ------------------------------------------------------------
.SUBCKT  FDP6670AL_FC  20  10  30 
*20=Drain 10=Gate 30=Source
Rg     10    1    1
M1      2    1    3    3    DMOS    L=1u   W=1u
.MODEL DMOS NMOS (VTO={1.7*{-0.003336*TEMP+1.0834}}  KP={-0.3*TEMP+100}  
+  THETA=0.086 VMAX=6E5  LEVEL=3)
Cgs     1    3    3300p
Rd     20    4    1.2m TC=0.004
Dds     3    4    DDS
.MODEL     DDS    D(BV={30*{0.0007328*TEMP+0.98168}}   M=0.3  CJO=800p   VJ=0.8)
Dbody   3   20    DBODY
.MODEL   DBODY    D(IS=1.4E-13   N=1   RS=40m   TT=100n)
Ra      4    2    1.2m TC=0.004
Rs      3    5    0.1m
Ls      5    30   0.5n
M2      1    8    6    6   INTER
E2      8    6    4    1   2
.MODEL   INTER    NMOS(VTO=0  KP=10   LEVEL=1)
Cgdmax  7    4    2900p
Rcgd    7    4    10meg
Dgd     6    4    DGD
Rdgd    4    6    10meg
.MODEL     DGD    D(M=0.6   CJO=2900p   VJ=0.35)
M3      7    9    1    1   INTER
E3      9    1    4    1   -2
.ENDS FDP6670AL_FC 
* 
* FDP6670AL THERMAL MODEL 
* ---------------------
.SUBCKT   6670ALTHM_FC   50  40  100
Rop       50   60   1meg                         ; From input power, use ideal
Cop       60   70   1u   IC=0                    ; opamp to get energy W(t),
E_W       40   70   40   60  1meg                ; assume Rin=infinite & Ro=0
E_Pave    80   40   VALUE = {V(40,70)/(TIME+1n)} ; Get average power by W(t)/t
R80       80   40   1k
E_Tjc    100   40   VALUE = {V(80,40)*1.2*V(90,40)}; Tja=Pave(t)*RJC*rjc(t)
R100     100   40   1k                             ; where RJC=2 deg/W
R90       90   40   1k
E_rjc     90   40   table {TIME} =              ; Normalized FDP6670AL Single Pulsed rjc(t) 
+ (1e-005, 0.0156008) 
+ (1.5e-005, 0.019107) 
+ (2e-005, 0.0220629) 
+ (3e-005, 0.0270214) 
+ (4e-005, 0.0312016) 
+ (5e-005, 0.0348845) 
+ (7e-005, 0.0412759) 
+ (0.0001, 0.0493341) 
+ (0.00015, 0.0604217) 
+ (0.0002, 0.069769) 
+ (0.0003, 0.0854492) 
+ (0.0004, 0.0986682) 
+ (0.0005, 0.110314) 
+ (0.0007, 0.130526) 
+ (0.001, 0.156008) 
+ (0.0015, 0.19107) 
+ (0.002, 0.220629) 
+ (0.00300068, 0.269488) 
+ (0.004, 0.30695) 
+ (0.00500875, 0.338816) 
+ (0.007, 0.38417) 
+ (0.0100302, 0.427714) 
+ (0.015, 0.476191) 
+ (0.0201171, 0.51115) 
+ (0.0302385, 0.557729) 
+ (0.0401603, 0.588408) 
+ (0.0499347, 0.613516) 
+ (0.0701816, 0.651838) 
+ (0.0993117, 0.689666) 
+ (0.150433,  0.734277) 
+ (0.2, 0.766409) 
+ (0.3, 0.814672) 
+ (0.4, 0.848456) 
+ (0.499014, 0.871326) 
+ (0.694928, 0.901643) 
+ (1, 0.929537) 
+ (1.50854, 0.955371) 
+ (1.99969, 0.970572) 
+ (3.01226, 0.986282) 
+ (4, 0.994209) 
+ (4.98949, 0.997334) 
+ (6.99375, 0.99942) 
+ (10.009, 0.99942)
.ENDS 6670ALTHM_FC 
* 
* 
*Fairchild Discretes Power & Signal Technolgies Aug 98 Rev.A*FDB7030BL ELECTRICAL MODEL 
* ------------------------
.SUBCKT  FDB7030BL_FC 20  10  30
Rg     10    1    3
M1      2    1    3    3    DMOS    L=1u   W=1u
.MODEL DMOS NMOS (VTO={1.7*{-0.003336*TEMP+1.0834}}  KP={-0.04*TEMP+65} THETA=0.086  VMAX=3E5  LEVEL=3)
Cgs     1    3    2500p
Rd     20    4    2m TC=0.004
Dds     3    4    DDS
.MODEL     DDS    D(BV={30*{0.0007328*TEMP+0.98168}}   M=0.377  CJO=1083p   VJ=1.22)
Dbody   3   20    DBODY
.MODEL   DBODY    D(IS=1.4E-13   N=1   RS=37.9m   TT=55n)
Ra      4    2    2m TC=0.004
Rs      3    5    0.2m
Ls      5    30   5n
M2      1    8    6    6   INTER
E2      8    6    4    1   2
.MODEL   INTER    NMOS(VTO=0  KP=10   LEVEL=1)
Cgdmax  7    4    1300p
Rcgd    7    4    10meg
Dgd     6    4    DGD
Rdgd    4    6    10meg
.MODEL     DGD    D(M=0.6   CJO=1300p   VJ=0.35)
M3      7    9    1    1   INTER
E3      9    1    4    1   -2
.ENDS FDB7030BL_FC 
* 
* FDB7030BL THERMAL MODEL 
* ---------------------
.SUBCKT   7030BLTHM_FC   50  40  100
Rop       50   60   1meg                         ; From input power, use ideal
Cop       60   70   1u   IC=0                    ; opamp to get energy W(t),
E_W       40   70   40   60  1meg                ; assume Rin=infinite & Ro=0
E_Pave    80   40   VALUE = {V(40,70)/(TIME+1n)} ; Get average power by W(t)/t
R80       80   40   1k
E_Tjc    100   40   VALUE = {V(80,40)*1.2*V(90,40)}; Tja=Pave(t)*RJC*rjc(t)
R100     100   40   1k                             ; where RJC=2.3 deg/W
R90       90   40   1k
E_rjc     90   40   table {TIME} =              ; Normalized FDB7030BL Single Pulsed rjc(t) 
+ (1e-005, 0.0156008) 
+ (1.5e-005, 0.019107) 
+ (2e-005, 0.0220629) 
+ (3e-005, 0.0270214) 
+ (4e-005, 0.0312016) 
+ (5e-005, 0.0348845) 
+ (7e-005, 0.0412759) 
+ (0.0001, 0.0493341) 
+ (0.00015, 0.0604217) 
+ (0.0002, 0.069769) 
+ (0.0003, 0.0854492) 
+ (0.0004, 0.0986682) 
+ (0.0005, 0.110314) 
+ (0.0007, 0.130526) 
+ (0.001, 0.156008) 
+ (0.0015, 0.19107) 
+ (0.002, 0.220629) 
+ (0.00300068, 0.269488) 
+ (0.004, 0.30695) 
+ (0.00500875, 0.338816) 
+ (0.007, 0.38417) 
+ (0.0100302, 0.427714) 
+ (0.015, 0.476191) 
+ (0.0201171, 0.51115) 
+ (0.0302385, 0.557729) 
+ (0.0401603, 0.588408) 
+ (0.0499347, 0.613516) 
+ (0.0701816, 0.651838) 
+ (0.0993117, 0.689666) 
+ (0.150433,  0.734277) 
+ (0.2, 0.766409) 
+ (0.3, 0.814672) 
+ (0.4, 0.848456) 
+ (0.499014, 0.871326) 
+ (0.694928, 0.901643) 
+ (1, 0.929537) 
+ (1.50854, 0.955371) 
+ (1.99969, 0.970572) 
+ (3.01226, 0.986282) 
+ (4, 0.994209) 
+ (4.98949, 0.997334) 
+ (6.99375, 0.99942) 
+ (10.009, 0.99942)
.ENDS 7030BLTHM_FC 
*FDP7030L ELECTRICAL MODEL 
 
* ------------------------
.SUBCKT  FDP7030L_FC 20  10  30
Rg     10    1    3
M1      2    1    3    3    DMOS    L=1u   W=1u
.MODEL DMOS NMOS (VTO=2  KP=65	THETA=0.086  VMAX=1.4E5  LEVEL=3)
Cgs     1    3    1800p
Rd     20    4    1.5m TC=0.0044
Dds     3    4    DDS
.MODEL     DDS    D(BV={30*{0.00144*TEMP+0.964}}   M=0.377  CJO=1083p   VJ=1.22)
Dbody   3   20    DBODY
.MODEL   DBODY    D(IS=1.4E-13   N=1   RS=37.9m   TT=55n)
Ra      4    2    1.5m TC=0.0044
Rs      3    5    0.2m
Ls      5    30   5n
M2      1    8    6    6   INTER
E2      8    6    4    1   2
.MODEL   INTER    NMOS(VTO=0  KP=10   LEVEL=1)
Cgdmax  7    4    4000p
Rcgd    7    4    10meg
Dgd     6    4    DGD
Rdgd    4    6    10meg
.MODEL     DGD    D(M=0.5   CJO=4000p   VJ=0.193)
M3      7    9    1    1   INTER
E3      9    1    4    1   -2
.ENDS FDP7030L_FC 
 
*
.SUBCKT   7030LTHM_FC   50  40  100
Rop       50   60   1meg                         ; From input power, use ideal
Cop       60   70   1u   IC=0                    ; opamp to get energy W(t),
E_W       40   70   40   60  1meg                ; assume Rin=infinite & Ro=0
E_Pave    80   40   VALUE = {V(40,70)/(TIME+1n)} ; Get average power by W(t)/t
R80       80   40   1k
E_Tjc    100   40   VALUE = {V(80,40)*1.2*V(90,40)}; Tja=Pave(t)*RJC*rjc(t)
R100     100   40   1k                             ; where RJC=1.2 deg/W
R90       90   40   1k
E_rjc     90   40   table {TIME} =              ; Normalized FDP7030L Single Pulsed rjc(t) 
 
+ (1e-005, 0.0156008) 
 
+ (1.5e-005, 0.019107) 
 
+ (2e-005, 0.0220629) 
 
+ (3e-005, 0.0270214) 
 
+ (4e-005, 0.0312016) 
 
+ (5e-005, 0.0348845) 
 
+ (7e-005, 0.0412759) 
 
+ (0.0001, 0.0493341) 
 
+ (0.00015, 0.0604217) 
 
+ (0.0002, 0.069769) 
 
+ (0.0003, 0.0854492) 
 
+ (0.0004, 0.0986682) 
 
+ (0.0005, 0.110314) 
 
+ (0.0007, 0.130526) 
 
+ (0.001, 0.156008) 
 
+ (0.0015, 0.19107) 
 
+ (0.002, 0.220629) 
 
+ (0.00300068, 0.269488) 
 
+ (0.004, 0.30695) 
 
+ (0.00500875, 0.338816) 
 
+ (0.007, 0.38417) 
 
+ (0.0100302, 0.427714) 
 
+ (0.015, 0.476191) 
 
+ (0.0201171, 0.51115) 
 
+ (0.0302385, 0.557729) 
 
+ (0.0401603, 0.588408) 
 
+ (0.0499347, 0.613516) 
 
+ (0.0701816, 0.651838) 
 
+ (0.0993117, 0.689666) 
 
+ (0.150433,  0.734277) 
 
+ (0.2, 0.766409) 
 
+ (0.3, 0.814672) 
 
+ (0.4, 0.848456) 
 
+ (0.499014, 0.871326) 
 
+ (0.694928, 0.901643) 
 
+ (1, 0.929537) 
 
+ (1.50854, 0.955371) 
 
+ (1.99969, 0.970572) 
 
+ (3.01226, 0.986282) 
 
+ (4, 0.994209) 
 
+ (4.98949, 0.997334) 
 
+ (6.99375, 0.99942) 
 
+ (10.009, 0.99942)
.ENDS 7030LTHM_FC 
 
* 
 
*FDP7045L-Preliminary ELECTRICAL MODEL 
*-------------------------------------
.SUBCKT FDP7045L_FC 20 10 30 
*20=DRAIN 10=GATE 30=SOURCE
Rg 10 1 1
M1 2 1 3 3 DMOS L=1u W=1u
.MODEL DMOS NMOS(VTO=1.95 KP=2.64E+2 
+THETA=0.1 VMAX=0.85E5 LEVEL=3)
Cgs 1 3 5275p
Rd 20 4  8.5E-4 TC=0.004
Dds 3 4 DDS
.MODEL DDS D(BV=30 M=4.58E-1 VJ=9.41E-1 CJO=2335p)
Dbody 3 20 DBODY
.MODEL DBODY D(IS=1.05E-10 N=1.139998 RS=0.000112 TT=100n)
Ra 4 2 8.5E-4 TC=0.004
Rs 3 5 0.5m
Ls 5 30 0.5n
M2 1 8 6 6 INTER
E2 8 6 4 1 2
.MODEL INTER NMOS(VTO=0 KP=10 LEVEL=1)
Cgdmax 7 4 3629p
Rcgd 7 4 10meg
Dgd 6 4 DGD
Rdgd 4 6 10meg
.MODEL DGD D(M=4.5E-1 VJ=1.93E-2 CJO=3629p)
M3 7 9 1 1 INTER
E3 9 1 4 1 -2
.ENDS FDP7045L_FC 
*ST-6/7/00 PRELIMINARY (Rev.A) 
**FDC5612 ELECTRICAL MODEL 
*-------------------------------------
.SUBCKT FDC5612_FC 20 10 30 
*20=DRAIN 10=GATE 30=SOURCE
Rg 10 1 1
M1 2 1 3 3 DMOS L=1u W=1u
.MODEL DMOS NMOS(VTO={2*{-2.55E-3*{TEMP-27}+1.45}} KP={-1.2E-1*{TEMP-27}+31.8} 
+THETA=0.066667 VMAX=1.45E5 LEVEL=3)
Cgs 1 3 636p
Rd 20 4  1.8E-2 TC=.006
Dds 3 4 DDS
.MODEL DDS D(BV={60+5.8E-2*{TEMP-25}} M=4.95E-1 VJ=9.3E-1 CJO=278p)
Dbody 3 20 DBODY
.MODEL DBODY D(IS=2.88E-11 N=1.199973 RS=6.20E-04 TT=100n)
Ra 4 2 1.8E-2 TC=.006
Rs 3 5 0.5m
Ls 5 30 0.5n
M2 1 8 6 6 INTER
E2 8 6 4 1 2
.MODEL INTER NMOS(VTO=0 KP=10 VMAX=0 LEVEL=1)
Cgdmax 7 4 459p
Rcgd 7 4 10meg
Dgd 6 4 DGD
Rdgd 4 6 10meg
.MODEL DGD D(M=3.52E-1 VJ=1.56E-2 CJO=459p)
M3 7 9 1 1 INTER
E3 9 1 4 1 -2
.ENDS FDC5612_FC 
*ST_5/24/00 
**FDC604P-PRELIMINARY ELECTRICAL MODEL 
*-------------------------------------
.SUBCKT FDC604P_FC 20 10 30 
*20=DRAIN 10=GATE 30=SOURCE
Rg 10 1 1
M1 2 1 3 3 DMOS L=1u W=1u
.MODEL DMOS PMOS(VTO=-0.75 KP=3.4E1 
+THETA=0.25 VMAX=7E5 LEVEL=3)
Cgs 1 3 1800p
Rd 20 4 4.27E-3 TC=.004
Dds 4 3 DDS
.MODEL DDS D(BV=20 M=9.47E-1 VJ=2.09E+1 CJO=500p)
Dbody 20 3 DBODY
.MODEL DBODY D(IS=1.19E-9 N=1.154752 RS=0.00324 TT=25n)
Ra 4 2 4.27E-3 TC=.004
Rs 3 5 0.5m
Ls 5 30 0.5n
M2 1 8 6 6 INTER
E2 8 6 4 1 2
.MODEL INTER PMOS(VTO=0 KP=10 LEVEL=1)
Cgdmax 7 4 1890p
Rcgd 7 4 10meg
Dgd 4 6 DGD
Rdgd 4 6 10meg
.MODEL DGD D(M=3.52E-1 VJ=1.35E-2 CJO=1890p)
M3 7 9 1 1 INTER
E3 9 1 4 1 -2
.ENDS FDC604P_FC 
*ST_7/21/00 (Rev.A1) 
** FDC6303N ELECTRICAL MODEL (SuperSOT-6 Dual N-Ch DMOS) 
* --------------------------------------------------------------
.SUBCKT  FDC6303N_FC 20  10  30
Rg     10    1    1
M1      2    1    3    3    DMOS    L=1u   W=1u
.MODEL DMOS NMOS (VTO={0.9*(-0.00232*TEMP+1.058)}  KP={-0.0005*TEMP+2.5}  THETA=0.096 
+ VMAX=3.8E5  LEVEL=3)
Cgs     1    3    200p
Rd     20    4    .12 TC=0.004
Dds     3    4    DDS
.MODEL     DDS    D(BV={25*(0.001*TEMP+0.975)}   M=0.36  CJO=23p   VJ=0.8)
Dbody   3   20    DBODY
.MODEL   DBODY    D(IS=1.4E-13   N=1   RS=40m   TT=100n)
Ra      4    2    .12 TC=0.004
Rs      3    5    10m
Ls      5    30   .7n
M2      1    8    6    6   INTER
E2      8    6    4    1   2
.MODEL   INTER    NMOS(VTO=0  KP=10   LEVEL=1)
Cgdmax  7    4    140p
Rcgd    7    4    10meg
Dgd     6    4    DGD
Rdgd    4    6    10meg
.MODEL     DGD    D(M=0.65   CJO=140p   VJ=0.35)
M3      7    9    1    1   INTER
E3      9    1    4    1   -2
.ENDS FDC6303N_FC 
*FDC6305N ELECTRICAL MODEL 
*-------------------------------------
.SUBCKT FDC6305N_FC 20 10 30 
*20=DRAIN 10=GATE 30=SOURCE
Rg 10 1 1
M1 2 1 3 3 DMOS L=1u W=1u
.MODEL DMOS NMOS(VTO={2*{-1.47E-3*{TEMP-27}+.6446}} KP={-.04*{TEMP-27}+14.74} 
+THETA=.166667 VMAX=3.5E5 LEVEL=3)
Cgs 1 3 278p
Rd 20 4 2.06E-2 TC=.008
Dds 3 4 DDS
.MODEL DDS D(BV={19.7+1.4E-2*{TEMP-25}} M=.291 VJ=.292 CJO=110p)
Dbody 3 20 DBODY
.MODEL DBODY D(IS=6.1E-10 N=1.28942 RS=.042224 TT=100n)
Ra 4 2 2.06E-2 TC=.008
Rs 3 5 0.5m
Ls 5 30 0.5n
M2 1 8 6 6 INTER
E2 8 6 4 1 2
.MODEL INTER NMOS(VTO=0 KP=10 LEVEL=1)
Cgdmax 7 4 339p
Rcgd 7 4 10meg
Dgd 6 4 DGD
.MODEL DGD D(M=.342 VJ=1.65E-2 CJO=339p)
M3 7 9 1 1 INTER
E3 9 1 4 1 -2
.ENDS FDC6305N_FC 
*TW 5/23/00 
**FDC6306P-PRELIMINARY ELECTRICAL MODEL 
*-------------------------------------
.SUBCKT FDC6306P_FC 20 10 30 
*20=DRAIN 10=GATE 30=SOURCE
Rg 10 1 1
M1 2 1 3 3 DMOS L=1u W=1u
.MODEL DMOS PMOS(VTO=-1 KP=5.72 
+THETA=0.2 VMAX=5E5 LEVEL=3)
Cgs 1 3 270p
Rd 20 4 2E-2 TC=.004
Dds 4 3 DDS
.MODEL DDS D(BV=20 M=2.52E-1 VJ=2.19E-1 CJO=150p)
Dbody 20 3 DBODY
.MODEL DBODY D(IS=2.53E-10 N=1.30345 RS=0.00212 TT=25n)
Ra 4 2 2E-2 TC=.004
Rs 3 5 0.5m
Ls 5 30 0.5n
M2 1 8 6 6 INTER
E2 8 6 4 1 2
.MODEL INTER PMOS(VTO=0 KP=10 LEVEL=1)
Cgdmax 7 4 220p
Rcgd 7 4 10meg
Dgd 4 6 DGD
Rdgd 4 6 10meg
.MODEL DGD D(M=1.9E-1 VJ=3.23E-2 CJO=220p)
M3 7 9 1 1 INTER
E3 9 1 4 1 -2
.ENDS FDC6306P_FC 
*ST_7/21/00 PRELIMINARY-MODEL (Rev.A) 
**FDC6308P-PRELIMINARY  ELECTRICAL MODEL 
*-------------------------------------
.SUBCKT FDC6308P_FC 20 10 30 
*20=DRAIN 10=GATE 30=SOURCE
Rg 10 1 1
M1 2 1 3 3 DMOS L=1u W=1u
.MODEL DMOS PMOS(VTO=-1.2 KP=4.35 
+THETA=0.166667 VMAX=9.5E5 LEVEL=3)
Cgs 1 3 320p
Rd 20 4 1.5E-2 TC=.003
Dds 4 3 DDS
.MODEL DDS D(BV=20 M=2.64E-1 VJ=4.74E-2 CJO=148p)
Dbody 20 3 DBODY
.MODEL DBODY D(IS=1.15E-9 N=1.457847 RS=0.00206 TT=25n)
Ra 4 2 1.5E-2 TC=.003
Rs 3 5 0.5m
Ls 5 30 0.5n
M2 1 8 6 6 INTER
E2 8 6 4 1 2
.MODEL INTER PMOS(VTO=0 KP=10 LEVEL=1)
Cgdmax 7 4 360p
Rcgd 7 4 10meg
Dgd 4 6 DGD
Rdgd 4 6 10meg
.MODEL DGD D(M=5.5E-1 VJ=4.4E-2 CJO=360p)
M3 7 9 1 1 INTER
E3 9 1 4 1 -2
.ENDS FDC6308P_FC 
*ST_6/7/00 PRELIMINARY MODEL (Rev.A) 
** FDC6321C ELECTRICAL MODEL (PRELIMINARY) (SuperSOT-6 Complementary N-Ch DMOS) 
* --------------------------------------------------------------
.SUBCKT  FDC6321CN_FC 20  10  30
Rg     10    1    1
M1      2    1    3    3    DMOS    L=1u   W=1u
.MODEL DMOS NMOS (VTO={0.9*(-0.00232*TEMP+1.058)}  KP={-0.0005*TEMP+2.5}  THETA=0.096 
+ VMAX=3.8E5  LEVEL=3)
Cgs     1    3    200p
Rd     20    4    .12 TC=0.004
Dds     3    4    DDS
.MODEL     DDS    D(BV={25*(0.001*TEMP+0.975)}   M=0.36  CJO=23p   VJ=0.8)
Dbody   3   20    DBODY
.MODEL   DBODY    D(IS=1.4E-13   N=1   RS=40m   TT=100n)
Ra      4    2    .12 TC=0.004
Rs      3    5    10m
Ls      5    30   .7n
M2      1    8    6    6   INTER
E2      8    6    4    1   2
.MODEL   INTER    NMOS(VTO=0  KP=10   LEVEL=1)
Cgdmax  7    4    140p
Rcgd    7    4    10meg
Dgd     6    4    DGD
Rdgd    4    6    10meg
.MODEL     DGD    D(M=0.65   CJO=140p   VJ=0.35)
M3      7    9    1    1   INTER
E3      9    1    4    1   -2
.ENDS FDC6321CN_FC 
* 
* FDC6321CP ELECTRICAL MODEL (PRELIMINARY) (SuperSOT-6 Complementary P-Ch DMOS) 
* ---------------------------------------------------------------
.SUBCKT  FDC6321CP_FC  20  10  30
Rg     10    1    1
M1      2    1    3    3    DMOS    L=1u   W=1u
.MODEL DMOS PMOS (VTO={-0.8*(-0.00232*TEMP+1.058)}  KP={-0.0009*TEMP+0.8225} 
+   THETA=0.096 VMAX=3.8E5  LEVEL=3)
Cgs     1    3    130p
Rd     20    4    0.25 TC=0.004
Dds     4    3    DDS
.MODEL     DDS    D(BV={25*(0.00088*TEMP+0.978)}   M=0.35  CJO=100p   VJ=1.0)
Dbody   20   3    DBODY
.MODEL   DBODY    D(IS=1E-12   N=1   RS=12.7m   TT=25n)
Ra      4    2    0.25 TC=0.004
Rs      3    5    10m
Ls      5    30   0.5n
M2      1    8    6    6   INTER
E2      8    6    4    1   2
.MODEL   INTER    PMOS(VTO=0  KP=10   LEVEL=1)
Cgdmax  7    4    110p
Rcgd    7    4    10meg
Dgd     4    6    DGD
Rdgd    4    6    10meg
.MODEL     DGD    D(M=0.55   CJO=110p   VJ=0.4)
M3      7    9    1    1   INTER
E3      9    1    4    1   -2
.ENDS FDC6321CP_FC 
* FDC6322C ELECTRICAL MODEL (PRELIMINARY) (SuperSOT-6 Complementary N-Ch DMOS) 
* --------------------------------------------------------------
.SUBCKT  FDC6322CN_FC  20  10  30
Rg     10    1    1
M1      2    1    3    3    DMOS    L=1u   W=1u
.MODEL DMOS NMOS (VTO={0.9*(-0.00232*TEMP+1.058)}  KP={-0.0005*TEMP+0.32}  THETA=0.096 
+ VMAX=3.8E5  LEVEL=3)
Cgs     1    3    90p
Rd     20    4    .7 TC=0.006
Dds     3    4    DDS
.MODEL     DDS    D(BV={25*(0.001*TEMP+0.975)}   M=0.36  CJO=23p   VJ=0.8)
Dbody   3   20    DBODY
.MODEL   DBODY    D(IS=1.4E-13   N=1   RS=40m   TT=100n)
Ra      4    2    .7 TC=0.006
Rs      3    5    10m
Ls      5    30   .7n
M2      1    8    6    6   INTER
E2      8    6    4    1   2
.MODEL   INTER    NMOS(VTO=0  KP=10   LEVEL=1)
Cgdmax  7    4    25p
Rcgd    7    4    10meg
Dgd     6    4    DGD
Rdgd    4    6    10meg
.MODEL     DGD    D(M=0.53   CJO=25p   VJ=0.12)
M3      7    9    1    1   INTER
E3      9    1    4    1   -2
.ENDS FDC6322CN_FC 
* 
* FDC6322CP ELECTRICAL MODEL (PRELIMINARY) (SuperSOT-6 Complementary P-Ch DMOS) 
* ---------------------------------------------------------------
.SUBCKT  FDC6322CP_FC  20  10  30
Rg     10    1    1
M1      2    1    3    3    DMOS    L=1u   W=1u
.MODEL DMOS PMOS (VTO={-0.8*(-0.00232*TEMP+1.058)}  KP={-0.0009*TEMP+0.8225} 
+   THETA=0.096 VMAX=3.8E5  LEVEL=3)
Cgs     1    3    130p
Rd     20    4    0.25 TC=0.004
Dds     4    3    DDS
.MODEL     DDS    D(BV={25*(0.00088*TEMP+0.978)}   M=0.35  CJO=100p   VJ=1.0)
Dbody   20   3    DBODY
.MODEL   DBODY    D(IS=1E-12   N=1   RS=12.7m   TT=25n)
Ra      4    2    0.25 TC=0.004
Rs      3    5    10m
Ls      5    30   0.5n
M2      1    8    6    6   INTER
E2      8    6    4    1   2
.MODEL   INTER    PMOS(VTO=0  KP=10   LEVEL=1)
Cgdmax  7    4    110p
Rcgd    7    4    10meg
Dgd     4    6    DGD
Rdgd    4    6    10meg
.MODEL     DGD    D(M=0.55   CJO=110p   VJ=0.120)
M3      7    9    1    1   INTER
E3      9    1    4    1   -2
.ENDS FDC6322CP_FC 
* FDC6323L ELECTRICAL MODEL (SSOT-6 Integrated Loadswitch) 
* -----------------------
.SUBCKT  FDC6323LQ1_FC 20  10  30
Rg     10    1    1
M1      2    1    3    3    DMOS    L=1u   W=1u
.MODEL DMOS NMOS (VTO={0.9*(-0.00232*TEMP+1.058)}  KP={-0.0005*TEMP+0.32}  THETA=0.096 
+ VMAX=3.8E5  LEVEL=3)
Cgs     1    3    90p
Rd     20    4    .7 TC=0.006
Dds     3    4    DDS
.MODEL     DDS    D(BV={25*(0.001*TEMP+0.975)}   M=0.36  CJO=23p   VJ=0.8)
Dbody   3   20    DBODY
.MODEL   DBODY    D(IS=1.4E-13   N=1   RS=40m   TT=100n)
Ra      4    2    .7 TC=0.006
Rs      3    5    10m
Ls      5    30   .7n
M2      1    8    6    6   INTER
E2      8    6    4    1   2
.MODEL   INTER    NMOS(VTO=0  KP=10   LEVEL=1)
Cgdmax  7    4    25p
Rcgd    7    4    10meg
Dgd     6    4    DGD
Rdgd    4    6    10meg
.MODEL     DGD    D(M=0.53   CJO=25p   VJ=0.4)
M3      7    9    1    1   INTER
E3      9    1    4    1   -2
Dzener     30	10    Dzener
.MODEL     Dzener    D(BV=8V)
.ENDS FDC6323LQ1_FC 
* 
* Q2 ELECTRICAL MODEL 
* -------------------
.SUBCKT  FDC6323LQ2_FC  20  10  30
Rg     10    1    1
M1      2    1    3    3    DMOS    L=1u   W=1u
.MODEL DMOS PMOS (VTO={-0.8*{-0.00272*TEMP+1.068}}  KP={-0.012*TEMP+5}  
+ THETA=0.096  VMAX=4E5  LEVEL=3)
Cgs     1    3    450p
Rd     20    4    50m TC=0.0044
Dds     4    3    DDS
.MODEL     DDS    D(BV={20*{0.000384*TEMP+0.9904}}   M=0.3  CJO=450p   VJ=0.8)
Dbody   20   3    DBODY
.MODEL   DBODY    D(IS=1.4E-13   N=1   RS=40m   TT=100n)
Ra      4    2    50m TC=0.0044
Rs      3    5    1m
Ls      5    30   0.5n
M2      1    8    6    6   INTER
E2      8    6    4    1   2
.MODEL   INTER    PMOS(VTO=0  KP=10   LEVEL=1)
Cgdmax  7    4    710p
Rcgd    7    4    10meg
Dgd     4    6    DGD
Rdgd    4    6    10meg
.MODEL     DGD    D(M=0.5   CJO=510p   VJ=0.12)
M3      7    9    1    1   INTER
E3      9    1    4    1   -2
.ENDS FDC6323LQ2_FC 
* FDC6324L ELECTRICAL MODEL (SSOT-6 Integrated Loadswitch) 
* -----------------------
.SUBCKT  FDC6324LQ1_FC 20  10  30
Rg     10    1    1
M1      2    1    3    3    DMOS    L=1u   W=1u
.MODEL DMOS NMOS (VTO={0.9*(-0.00232*TEMP+1.058)}  KP={-0.0005*TEMP+0.32}  THETA=0.096 
+ VMAX=3.8E5  LEVEL=3)
Cgs     1    3    90p
Rd     20    4    .7 TC=0.006
Dds     3    4    DDS
.MODEL     DDS    D(BV={25*(0.001*TEMP+0.975)}   M=0.36  CJO=23p   VJ=0.8)
Dbody   3   20    DBODY
.MODEL   DBODY    D(IS=1.4E-13   N=1   RS=40m   TT=100n)
Ra      4    2    .7 TC=0.006
Rs      3    5    10m
Ls      5    30   .7n
M2      1    8    6    6   INTER
E2      8    6    4    1   2
.MODEL   INTER    NMOS(VTO=0  KP=10   LEVEL=1)
Cgdmax  7    4    25p
Rcgd    7    4    10meg
Dgd     6    4    DGD
Rdgd    4    6    10meg
.MODEL     DGD    D(M=0.53   CJO=25p   VJ=0.4)
M3      7    9    1    1   INTER
E3      9    1    4    1   -2
Dzener     30	10    Dzener
.MODEL     Dzener    D(BV=8V)
.ENDS FDC6324LQ1_FC 
* 
* Q2 ELECTRICAL MODEL 
* -------------------
.SUBCKT  FDC6324LQ2_FC  20  10  30
Rg     10    1    1
M1      2    1    3    3    DMOS    L=1u   W=1u
.MODEL DMOS PMOS (VTO={-2.1*{-0.00216*TEMP+1.054}}  KP={-0.005*TEMP+3.825} 
+  THETA=0.096  VMAX=4E5  LEVEL=3)
Cgs     1    3    280p
Rd     20    4    10m TC=0.00184
Dds     4    3    DDS
.MODEL     DDS    D(BV={30*{0.006*TEMP+0.85}}   M=0.3  CJO=200p   VJ=0.8)
Dbody   20   3    DBODY
.MODEL   DBODY    D(IS=1.4E-13   N=1   RS=40m   TT=100n)
Ra      4    2    65m TC=0.00184
Rs      3    5    1m
Ls      5    30   0.5n
M2      1    8    6    6   INTER
E2      8    6    4    1   2
.MODEL   INTER    PMOS(VTO=0  KP=10   LEVEL=1)
Cgdmax  7    4    360p
Rcgd    7    4    10meg
Dgd     4    6    DGD
Rdgd    4    6    10meg
.MODEL     DGD    D(M=0.5   CJO=360p   VJ=0.12)
M3      7    9    1    1   INTER
E3      9    1    4    1   -2
.ENDS FDC6324LQ2_FC 
 
 
 
* FDC6325L ELECTRICAL MODEL (SSOT-6 Integrated Loadswitch) 
* -----------------------
.SUBCKT  FDC6325LQ1_FC 20  10  30
Rg     10    1    1
M1      2    1    3    3    DMOS    L=1u   W=1u
.MODEL DMOS NMOS (VTO={0.9*(-0.00232*TEMP+1.058)}  KP={-0.0005*TEMP+0.32}  THETA=0.096 
+ VMAX=3.8E5  LEVEL=3)
Cgs     1    3    90p
Rd     20    4    .7 TC=0.006
Dds     3    4    DDS
.MODEL     DDS    D(BV={25*(0.001*TEMP+0.975)}   M=0.36  CJO=23p   VJ=0.8)
Dbody   3   20    DBODY
.MODEL   DBODY    D(IS=1.4E-13   N=1   RS=40m   TT=100n)
Ra      4    2    .7 TC=0.006
Rs      3    5    10m
Ls      5    30   .7n
M2      1    8    6    6   INTER
E2      8    6    4    1   2
.MODEL   INTER    NMOS(VTO=0  KP=10   LEVEL=1)
Cgdmax  7    4    25p
Rcgd    7    4    10meg
Dgd     6    4    DGD
Rdgd    4    6    10meg
.MODEL     DGD    D(M=0.53   CJO=25p   VJ=0.4)
M3      7    9    1    1   INTER
E3      9    1    4    1   -2
Dzener     30	10    Dzener
.MODEL     Dzener    D(BV=8V)
.ENDS FDC6325LQ1_FC 
* 
* Q2 ELECTRICAL MODEL 
* -------------------
.SUBCKT  FDC6325LQ2_FC  20  10  30
Rg     10    1    1
M1      2    1    3    3    DMOS    L=1u   W=1u
.MODEL DMOS PMOS (VTO={-0.7*{-0.0032*TEMP+1.08}}  KP={-0.0023*TEMP+6.8}  THETA=0.096  VMAX=4E5  LEVEL=3)
Cgs     1    3    400p
Rd     20    4    20m TC=0.004
Dds     4    3    DDS
.MODEL     DDS    D(BV={20*{0.0014*TEMP+0.965}}   M=0.3  CJO=450p   VJ=0.8)
Dbody   20   3    DBODY
.MODEL   DBODY    D(IS=1.4E-13   N=1   RS=40m   TT=100n)
Ra      4    2    35m TC=0.004
Rs      3    5    1m
Ls      5    30   0.5n
M2      1    8    6    6   INTER
E2      8    6    4    1   2
.MODEL   INTER    PMOS(VTO=0  KP=10   LEVEL=1)
Cgdmax  7    4    850p
Rcgd    7    4    10meg
Dgd     4    6    DGD
Rdgd    4    6    10meg
.MODEL     DGD    D(M=0.6   CJO=850p   VJ=0.1)
M3      7    9    1    1   INTER
E3      9    1    4    1   -2
.ENDS FDC6325LQ2_FC 
* FDC6326L ELECTRICAL MODEL (SSOT-6 Integrated Loadswitch) 
* -----------------------
.SUBCKT  FDC6326LQ1_FC 20  10  30
Rg     10    1    1
M1      2    1    3    3    DMOS    L=1u   W=1u
.MODEL DMOS NMOS (VTO={0.9*(-0.00232*TEMP+1.058)}  KP={-0.0005*TEMP+0.32}  THETA=0.096 
+ VMAX=3.8E5  LEVEL=3)
Cgs     1    3    90p
Rd     20    4    .7 TC=0.006
Dds     3    4    DDS
.MODEL     DDS    D(BV={27*(0.001*TEMP+0.975)}   M=0.36  CJO=23p   VJ=0.8)
Dbody   3   20    DBODY
.MODEL   DBODY    D(IS=1.4E-13   N=1   RS=40m   TT=100n)
Ra      4    2    .7 TC=0.006
Rs      3    5    10m
Ls      5    30   .7n
M2      1    8    6    6   INTER
E2      8    6    4    1   2
.MODEL   INTER    NMOS(VTO=0  KP=10   LEVEL=1)
Cgdmax  7    4    25p
Rcgd    7    4    10meg
Dgd     6    4    DGD
Rdgd    4    6    10meg
.MODEL     DGD    D(M=0.53   CJO=25p   VJ=0.4)
M3      7    9    1    1   INTER
E3      9    1    4    1   -2
Dzener     30	10    Dzener
.MODEL     Dzener    D(BV=8V)
.ENDS FDC6326LQ1_FC 
* 
* Q2 ELECTRICAL MODEL 
* -------------------
.SUBCKT  FDC6326LQ2_FC  20  10  30
Rg     10    1    1
M1      2    1    3    3    DMOS    L=1u   W=1u
.MODEL DMOS PMOS (VTO={-1.9*{-0.002*TEMP+1.05}}  KP={-0.0056*TEMP+4.2}  THETA=0.096  VMAX=4E5  LEVEL=3)
Cgs     1    3    280p
Rd     20    4    20m TC=0.004
Dds     4    3    DDS