**********
*SRC=F00;F00;TTL;FAST Series;I/O Only
*SYM=FDEV
*DWG=C:\MODELS\DIGITAL\TTL\FAST\SUBCKTS\F00S.DWG
.SUBCKT F00  9 2 5 3 {LIN=6.1N CIN=1.17P LOUT=2.9N COUT=1.03P }
*           in vcc gnd out
X13 1 2 5 4 FDINPUT
X14 4 2 5 6 FOUT24M
LOUT 6 3 {LOUT}
COUT 6 0 {COUT}
LIN 9 1 {LIN}
CIN 1 0 {CIN}
.ENDS
*INCLUDE FAST_T.LIB
**********
*SRC=F06;F06;TTL;FAST Series;I/O Only
*SYM=FDEV
*DWG=C:\MODELS\DIGITAL\TTL\FAST\SUBCKTS\F06S.DWG
.SUBCKT F06  1 4 2 3 {LIN=6.1N CIN=1.17P LOUT=2.9N COUT=1.03P }
*           in vcc gnd out
X6 5 4 2 6 FDINPUT
LOUT 7 3 {LOUT}
COUT 7 0 {COUT}
LIN 1 5 {LIN}
CIN 5 0 {CIN}
X7 6 4 2 7 FO64MOC
.ENDS
*INCLUDE FAST_T.LIB
**********
*SRC=F37;F37;TTL;FAST Series;I/O Only
*SYM=FDEV
*DWG=C:\MODELS\DIGITAL\TTL\FAST\SUBCKTS\F37S.DWG
.SUBCKT F37  1 4 2 3 {LIN=6.1N CIN=1.17P LOUT=2.9N COUT=1.03P }
*           in vcc gnd out
X7 5 4 2 6 FDINPUT
LOUT 7 3 {LOUT}
COUT 7 0 {COUT}
LIN 1 5 {LIN}
CIN 5 0 {CIN}
X8 6 4 2 7 FOUT64M
.ENDS
*INCLUDE FAST_T.LIB
**********
*SRC=F168;F168;TTL;FAST Series;I/O Only
*SYM=FDEVEN
*DWG=C:\MODELS\DIGITAL\TTL\FAST\SUBCKTS\F168.DWG
.SUBCKT F168  1 6 4 2 3 {LIN=6.1N CIN=1.17P LOUT=2.9N COUT=1.03P }
*           in en vcc gnd out
X7 5 4 2 8 FDINPUT
X8 8 6 4 2 7 FO24M3S
LOUT 7 3 {LOUT}
COUT 7 0 {COUT}
LIN 1 5 {LIN}
CIN 5 0 {CIN}
.ENDS
*INCLUDE FAST_T.LIB
**********
*SRC=F173;F173;TTL;FAST Series;I/O Only
*SYM=FDEVEN
*DWG=C:\MODELS\DIGITAL\TTL\FAST\SUBCKTS\F173.DWG
.SUBCKT F173  1 6 2 3 5 {LIN=6.1N CIN=1.17P LOUT=2.9N COUT=1.03P }
*            in en vcc gnd out
X2 4 2 3 8 FDINPUT
LOUT 7 5 {LOUT}
COUT 7 0 {COUT}
LIN 1 4 {LIN}
CIN 4 0 {CIN}
X4 8 6 2 3 7 FO48M3S
.ENDS
*INCLUDE FAST_T.LIB
**********
*SRC=F125;F125;TTL;FAST Series;I/O Only
*SYM=FDEVEN
*DWG=C:\MODELS\DIGITAL\TTL\FAST\SUBCKTS\F125.DWG
.SUBCKT F125  1 6 2 3 5 {LIN=6.1N CIN=1.17P LOUT=2.9N COUT=1.03P }
*            in en vcc gnd out
LOUT 7 5 {LOUT}
COUT 7 0 {COUT}
LIN 1 4 {LIN}
CIN 4 0 {CIN}
X4 8 6 2 3 7 FO64M3S
X5 4 2 3 8 FNPNBIN
.ENDS
*INCLUDE FAST_T.LIB
**********
*SRC=F181OC;F181_OC;TTL;FAST Series;I/O Only
*SYM=FDEV
*DWG=C:\MODELS\DIGITAL\TTL\FAST\SUBCKTS\F181OC.DWG
.SUBCKT F181_OC  1 2 3 5 {LIN=6.1N CIN=1.17P LOUT=2.9N COUT=1.03P }
*               in vcc gnd out
X2 4 2 3 7 FDINPUT
LOUT 8 5 {LOUT}
COUT 8 0 {COUT}
LIN 1 4 {LIN}
CIN 4 0 {CIN}
X3 7 2 3 8 FO24MOC
.ENDS
*INCLUDE FAST_T.LIB
**********
*SRC=F240;F240;TTL;FAST Series;I/O Only
*SYM=FDEVEN
*DWG=C:\MODELS\DIGITAL\TTL\FAST\SUBCKTS\F240.DWG
.SUBCKT F240  1 6 4 2 3 {LIN=6.1N CIN=1.17P LOUT=2.9N COUT=1.03P }
*            in en vcc gnd out
X7 5 4 2 8 FDINPUT
X8 8 6 4 2 7 FO64M3S
LOUT 7 3 {LOUT}
COUT 7 0 {COUT}
LIN 1 5 {LIN}
CIN 5 0 {CIN}
.ENDS
*INCLUDE FAST_T.LIB
**********
*SRC=F543_64;F543_64;TTL;FAST Series;I/O Only
*SYM=FDEVEN
*DWG=C:\MODELS\DIGITAL\TTL\FAST\SUBCKTS\F168.DWG
.SUBCKT F543_64  1 6 4 2 3 {LIN=6.1N CIN=1.17P LOUT=2.9N COUT=1.03P }
*               in en vcc gnd out
X7 5 4 2 8 FDINPUT
X8 8 6 4 2 7 FO64M3S
LOUT 7 3 {LOUT}
COUT 7 0 {COUT}
LIN 1 5 {LIN}
CIN 5 0 {CIN}
.ENDS
*INCLUDE FAST_T.LIB
**********
*SRC=F620_24;F620_24;TTL;FAST Series;I/O Only
*SYM=FDEVEN
*DWG=C:\MODELS\DIGITAL\TTL\FAST\SUBCKTS\F168.DWG
.SUBCKT F620_24  1 6 4 2 3 {LIN=6.1N CIN=1.17P LOUT=2.9N COUT=1.03P }
*                in en vcc gnd out
X7 5 4 2 8 FNPNBIN
X8 8 6 4 2 7 FO24M3S
LOUT 7 3 {LOUT}
COUT 7 0 {COUT}
LIN 1 5 {LIN}
CIN 5 0 {CIN}
.ENDS
*INCLUDE FAST_T.LIB
**********
*SRC=F621_24;F621_24;TTL;FAST Series;I/O Only
*SYM=FDEVEN
*DWG=C:\MODELS\DIGITAL\TTL\FAST\SUBCKTS\F181OC.DWG
.SUBCKT F621_24  1 6 2 3 5 {LIN=6.1N CIN=1.17P LOUT=2.9N COUT=1.03P }
*               in en vcc gnd out
X2 4 2 3 7 FNPNBIN
LOUT 8 5 {LOUT}
COUT 8 0 {COUT}
LIN 1 4 {LIN}
CIN 4 0 {CIN}
X3 7 2 3 8 FO24MOC
.ENDS
*INCLUDE FAST_T.LIB
**********
*SRC=F621_64;F621_64;TTL;FAST Series;I/O Only
*SYM=FDEVEN
*DWG=C:\MODELS\DIGITAL\TTL\FAST\SUBCKTS\F181OC.DWG
.SUBCKT F621_64  1 6 2 3 5 {LIN=6.1N CIN=1.17P LOUT=2.9N COUT=1.03P }
*               in en vcc gnd out
X2 4 2 3 7 FNPNBIN
LOUT 8 5 {LOUT}
COUT 8 0 {COUT}
LIN 1 4 {LIN}
CIN 4 0 {CIN}
X3 7 2 3 8 FO64MOC
.ENDS
*INCLUDE FAST_T.LIB
**********
*SRC=F595_3S;F595_3S;TTL;FAST Series;I/O Only
*SYM=FDEVEN
*DWG=C:\MODELS\DIGITAL\TTL\FAST\SUBCKTS\F646A.DWG
.SUBCKT F595_3S  5 11 7 8 10 {LIN=6.1N CIN=1.17P LOUT=2.9N COUT=1.03P }
*               in en vcc gnd out
X2 1 11 7 8 2 ALO243SC
LOUT 2 10 {LOUT}
COUT 2 0 {COUT}
LIN 5 3 {LIN}
CIN 3 0 {CIN}
X1 3 7 8 1 FPNPIN
.ENDS
*INCLUDE FAST_T.LIB
**********
*SRC=F646A;F646A;TTL;FAST Series;I/O Only
*SYM=FDEVEN
*DWG=C:\MODELS\DIGITAL\TTL\FAST\SUBCKTS\F646A.DWG
.SUBCKT F646A  5 11 7 8 10 {LIN=6.1N CIN=1.17P LOUT=2.9N COUT=1.03P }
*             in en vcc gnd out
X2 1 11 7 8 2 ALO643SC
LOUT 2 10 {LOUT}
COUT 2 0 {COUT}
LIN 5 3 {LIN}
CIN 3 0 {CIN}
X1 3 7 8 1 FPNPIN
.ENDS
*INCLUDE FAST_T.LIB
**********
*SRC=F595;F595;TTL;FAST Series;I/O Only
*SYM=FDEV
*DWG=C:\MODELS\DIGITAL\TTL\FAST\SUBCKTS\F00S.DWG
.SUBCKT F595  9 2 5 3 {LIN=6.1N CIN=1.17P LOUT=2.9N COUT=1.03P }
*            in vcc gnd out
X13 1 2 5 4 FPNPIN
X14 4 2 5 6 ALOUT24M
LOUT 6 3 {LOUT}
COUT 6 0 {COUT}
LIN 9 1 {LIN}
CIN 1 0 {CIN}
.ENDS
*INCLUDE FAST_T.LIB
**********
*SRC=F711;F711;TTL;FAST Series;I/O Only
*SYM=FDEV
*DWG=C:\MODELS\DIGITAL\TTL\FAST\SUBCKTS\F00S.DWG
.SUBCKT F711  9 2 5 3 {LIN=6.1N CIN=1.17P LOUT=2.9N COUT=1.03P }
*             in vcc gnd out
X13 1 2 5 4 FPNPIN
X14 4 2 5 6 ALOUT64M
LOUT 6 3 {LOUT}
COUT 6 0 {COUT}
LIN 9 1 {LIN}
CIN 1 0 {CIN}
.ENDS
*INCLUDE FAST_T.LIB
**********
*SRC=F723_1;F723_1;TTL;FAST Series;I/O Only
*SYM=FDEV
*DWG=C:\MODELS\DIGITAL\TTL\FAST\SUBCKTS\F00S.DWG
.SUBCKT F723_1  9 2 5 3 {LIN=6.1N CIN=1.17P LOUT=2.9N COUT=1.03P }
*              in vcc gnd out
X13 1 2 5 4 FPNPIN
X14 4 2 5 6 FOUT30D
LOUT 6 3 {LOUT}
COUT 6 0 {COUT}
LIN 9 1 {LIN}
CIN 1 0 {CIN}
.ENDS
*INCLUDE FAST_T.LIB
**********
*SRC=F3037;F3037;TTL;FAST Series;I/O Only
*SYM=FDEV
*DWG=C:\MODELS\DIGITAL\TTL\FAST\SUBCKTS\F00S.DWG
.SUBCKT F3037  9 2 5 3 {LIN=6.1N CIN=1.17P LOUT=2.9N COUT=1.03P }
*             in vcc gnd out
X13 1 2 5 4 FDINPUT
X14 4 2 5 6 FOUT30D
LOUT 6 3 {LOUT}
COUT 6 0 {COUT}
LIN 9 1 {LIN}
CIN 1 0 {CIN}
.ENDS
*INCLUDE FAST_T.LIB
**********
*SRC=F3038;F3038;TTL;FAST Series;I/O Only
*SYM=FDEV
*DWG=C:\MODELS\DIGITAL\TTL\FAST\SUBCKTS\F00S.DWG
.SUBCKT F3038  9 2 5 3 {LIN=6.1N CIN=1.17P LOUT=2.9N COUT=1.03P }
*             in vcc gnd out
X13 1 2 5 4 FDINPUT
X14 4 2 5 6 FO30DOC
LOUT 6 3 {LOUT}
COUT 6 0 {COUT}
LIN 9 1 {LIN}
CIN 1 0 {CIN}
.ENDS
*INCLUDE FAST_T.LIB
**********
*SYM=FINOUT
*DWG=C:\MODELS\DIGITAL\TTL\FAST\SUBCKTS\FOUT24M.DWG
.SUBCKT FOUT24M  16 14 12 15
*                in vcc gnd out
XQ1 1 9 2 12 F1212X8
D1 2 9 FD12X8
X2 9 16 3 12 F1212X8
D2 4 12 FD30X15
D3 5 15 FD20X20
Q2 1 2 15 FQDAR
D4 14 6 FD20X80
X3 15 3 12 12 F24MD24M
D5 3 7 FD9X8
D6 7 2 FDPN
D7 3 8 FD9X8
Q3 8 7 12 FQ1A
D8 12 15 FD20X80
X4 14 9 14 R9W {RES=2.5K}
X5 6 1 12 RDNBN {RES=30}
X6 2 5 14 R9W {RES=2K}
X7 3 4 14 R9W {RES=1K}
.ENDS
*INCLUDE FAST_T.LIB
**********
*SYM=FINOUT
*DWG=C:\MODELS\DIGITAL\TTL\FAST\SUBCKTS\FDINPUT.DWG
.SUBCKT FDINPUT  7 8 9 3
*                in vcc gnd out
D1 1 7 FDPN
XQ1 2 1 4 9 F1AD9X8
D2 4 7 FD20X20
D3 9 7 FD20X80
X2 8 1 8 R9W {RES=10K}
X3 8 2 8 R9W {RES=10K}
X4 4 9 8 R9W {RES=20K}
XR1 8 3 8 R9W {RES=5K}
X6 3 4 6 9 F1616X14
D4 6 9 FD30X15
.ENDS
*INCLUDE FAST_T.LIB
**********
*SYM=FINOUT
*DWG=C:\MODELS\DIGITAL\TTL\FAST\SUBCKTS\FNPNBIN.DWG
.SUBCKT FNPNBIN  4 15 6 14
D1 15 13 FD20X20
D2 15 2 FDPN
XQ1 13 4 3 6 F1AD9X8
XQ2 13 4 5 6 F1AD9X8
D3 17 3 FDPN
Q3 7 5 4 FQ1A
C1 5 6 1P
D4 6 4 FD20X80
D5 17 7 FD20X20
XQ4 3 8 9 6 F1AD9X8
XQ5 10 8 11 6 F1AD9X8
Q6 12 10 8 FQ1A
XR7 15 10 15 R9W {RES=6K}
X2 15 12 15 R9W {RES=5K}
X3 8 6 15 R9W {RES=20K}
X4 2 17 15 R9W {RES=6K}
X5 11 6 6 RDNBN {RES=50}
X6 9 6 6 RDNBN {RES=50}
XR1 15 14 15 R9W {RES=5K}
XQ7 14 17 16 6 F1616X14
D6 16 6 FD30X15
.ENDS
*INCLUDE FAST_T.LIB
**********
*SYM=FINOUT
*DWG=C:\MODELS\DIGITAL\TTL\FAST\SUBCKTS\FOUT64M.DWG
.SUBCKT FOUT64M  4 1 14 9
*                in vcc gnd out
XQ1 2 13 3 14 F1212X8
D1 3 13 FD12X8
XQ2 13 4 5 14 F2424X8
D2 6 14 FD30X15
D3 8 9 FD20X20
Q3 2 3 9 FQDAR
D4 1 10 FD20X80
XQ4 9 5 14 14 F64MD64M
D5 5 11 FD9X8
D6 11 3 FDPN
D7 5 12 FD9X8
Q5 12 11 14 FQ1A
D8 14 9 FD20X80
XR5 1 13 1 R9W {RES=900}
X2 10 2 14 RDNBN {RES=12}
X3 5 6 1 R9W {RES=500}
X4 3 8 1 R9W {RES=2K}
.ENDS
*INCLUDE FAST_T.LIB
**********
*SYM=FINOUT
*DWG=C:\MODELS\DIGITAL\TTL\FAST\SUBCKTS\FOUT48M.DWG
.SUBCKT FOUT48M  4 1 14 9
*                in vcc gnd out
XQ1 2 13 3 14 F1212X8
D1 3 13 FD12X8
XQ2 13 4 5 14 F1616X14
D2 6 14 FD30X15
D3 8 9 FD20X20
Q3 2 3 9 FQDAR
D4 1 10 FD20X80
XQ4 9 5 14 14 F48MD48M
D5 5 11 FD9X8
D6 11 3 FDPN
D7 5 12 FD9X8
Q5 12 11 14 FQ1A
D8 14 9 FD20X80
XR5 1 13 1 R9W {RES=1.75K}
X2 10 2 14 RDNBN {RES=12}
X3 5 6 1 R9W {RES=750}
X4 3 8 1 R9W {RES=2K}
.ENDS
*INCLUDE FAST_T.LIB
**********
*SYM=FINOUT
*DWG=C:\MODELS\DIGITAL\TTL\FAST\SUBCKTS\FOUT30D.DWG
.SUBCKT FOUT30D  16 13 15 17
*                in vcc gnd out
Q1 2 3 4 FQ16A
D1 12 2 FD16X8
D2 12 3 FD16X8
Q2 13 12 5 FQ16A
Q3 4 5 17 FQ30DAR
D3 6 17 FD20X20
D4 5 12 FD16X8
XQ4 12 16 7 15 F2929X8
XQ5 17 7 15 15 F3030DRI
D5 15 17 FD20X80
D6 9 15 FD30X15
D7 7 10 FD9X8
D8 10 5 FDPN
D9 7 11 FD9X8
Q6 11 10 15 FQ1A
XR5 13 12 13 R9W {RES=600}
X2 13 4 15 RDNBN {RES=22}
X3 7 9 13 R9W {RES=750}
X5 5 6 13 R9W {RES=290}
.ENDS
*INCLUDE FAST_T.LIB
**********
*SYM=FINOUT
*DWG=C:\MODELS\DIGITAL\TTL\FAST\SUBCKTS\FO48MOC.DWG
.SUBCKT FO48MOC  2 1 5 6
*                in vcc gnd out
X2 7 2 3 5 F1616X14
X3 3 4 1 R9W {RES=750}
X4 6 3 5 5 F48MD48M
D3 5 6 FD20X80
D4 4 5 FD30X15
X1 1 7 1 R9W {RES=1.75K}
.ENDS
*INCLUDE FAST_T.LIB
**********
*SYM=FINOUT
*DWG=C:\MODELS\DIGITAL\TTL\FAST\SUBCKTS\FO64MOC.DWG
.SUBCKT FO64MOC  2 1 5 6
*                in vcc gnd out
X2 7 2 3 5 F2424X8
X3 3 4 1 R9W {RES=500}
X4 6 3 5 5 F64MD64M
D3 5 6 FD20X80
D4 4 5 FD30X15
X1 1 7 1 R9W {RES=900}
.ENDS
*INCLUDE FAST_T.LIB
**********
*SYM=FINOUT
*DWG=C:\MODELS\DIGITAL\TTL\FAST\SUBCKTS\FO24MOC.DWG
.SUBCKT FO24MOC  4 6 7 5
*                in vcc gnd out
XQ1 1 4 2 7 F1212X8
XR2 2 3 6 R9W {RES=1K}
XQ2 5 2 7 7 F24MD24M
D3 7 5 FD20X80
D4 3 7 FD30X15
XR1 6 1 6 R9W {RES=2.5K}
.ENDS
*INCLUDE FAST_T.LIB
**********
*SYM=FOUTEN
*DWG=C:\MODELS\DIGITAL\TTL\FAST\SUBCKTS\FO24M3S.DWG
.SUBCKT FO24M3S  4 15 2 1 3
*                in en vcc gnd out
X2 5 6 7 1 F1212X8
D1 7 6 FD12X8
X3 6 4 8 1 F1212X8
D2 9 1 FD30X15
D3 10 3 FD20X20
Q1 5 7 3 FQDAR
D4 2 11 FD20X80
X4 3 8 1 1 F24MD24M
D5 8 12 FD9X8
D6 12 7 FDPN
D7 8 13 FD9X8
Q2 13 12 1 FQ1A
D8 1 3 FD20X80
X5 2 6 2 R9W {RES=2.5K}
X6 11 5 1 RDNBN {RES=30}
X7 7 10 2 R9W {RES=2K}
X8 8 9 2 R9W {RES=1K}
D9 4 15 FD30X15
D10 14 15 FD30X15
.ENDS
*INCLUDE FAST_T.LIB
**********
*SYM=FOUTEN
*DWG=C:\MODELS\DIGITAL\TTL\FAST\SUBCKTS\FO48M3S.DWG
.SUBCKT FO48M3S  4 15 2 1 3
*                in en vcc gnd out
X2 5 6 7 1 F1212X8
D1 7 6 FD12X8
X3 6 4 8 1 F1616X14
D2 9 1 FD30X15
D3 10 3 FD20X20
Q1 5 7 3 FQDAR
D4 2 11 FD20X80
X4 3 8 1 1 F48MD48M
D5 8 12 FD9X8
D6 12 7 FDPN
D7 8 13 FD9X8
Q2 13 12 1 FQ1A
D8 1 3 FD20X80
X5 2 6 2 R9W {RES=1.75K}
X6 11 5 1 RDNBN {RES=12}
X7 8 9 2 R9W {RES=750}
X8 7 10 2 R9W {RES=2K}
D9 4 15 FD30X15
D10 14 15 FD30X15
.ENDS
*INCLUDE FAST_T.LIB
**********
*SYM=FOUTEN
*DWG=C:\MODELS\DIGITAL\TTL\FAST\SUBCKTS\FO64M3S.DWG
.SUBCKT FO64M3S  4 16 2 1 3
*                in en vcc gnd out
X2 5 6 7 1 F1212X8
D1 7 6 FD12X8
X3 6 4 8 1 F2424X8
D2 9 1 FD30X15
D3 10 3 FD20X20
Q1 5 7 3 FQDAR
D4 2 11 FD20X80
X4 3 8 1 1 F64MD64M
D5 8 12 FD9X8
D6 12 7 FDPN
D7 8 13 FD9X8
Q2 13 12 1 FQ1A
D8 1 3 FD20X80
X5 2 6 2 R9W {RES=900}
X6 11 5 1 RDNBN {RES=12}
X7 8 9 2 R9W {RES=500}
X8 7 10 2 R9W {RES=2K}
D9 4 16 FD30X15
D10 14 16 FD30X15
.ENDS
*INCLUDE FAST_T.LIB
**********
*SYM=FINOUT
*DWG=C:\MODELS\DIGITAL\TTL\FAST\SUBCKTS\FO30DOC.DWG
.SUBCKT FO30DOC  2 1 6 5
*                in vcc gnd out
X2 7 2 3 6 F2929X8
X3 3 4 1 R9W {RES=750}
X4 5 3 6 6 F3030DRI
D1 6 5 FD20X80
D2 4 6 FD30X15
X1 1 7 1 R9W {RES=600}
.ENDS
*INCLUDE FAST_T.LIB
**********
.SUBCKT F1AD9X8  1 2 3 4
QN   1 2 3 4 MTRN
DSCH   2 1 MSCH
.MODEL  MTRN  NPN  IS= 1.95E-17  BF= 7.03E+01  VAF= 1.80E+01  IKF= 1.80E-02
+  BR= 5.30E+00  VAR= 2.08E+00  IKR= 5.23E-03  RB= 2.53E+03
+  RE= 4.87E+00  RC= 1.02E+02  XTB= 1.50E+00  EG= 1.23E+00
+  XTI= 2.14E+00  CJE= 4.44E-14  VJE= 9.06E-01  MJE= 3.49E-01  TF= 7.93E-12
+  CJC= 4.53E-14  VJC= 8.01E-01  MJC= 4.61E-01  TR= 4.84E-09  CJS= 7.51E-14
+  VJS= 7.16E-01  MJS= 4.38E-01
.MODEL MSCH D(IS= 9.75E-14  RS= 1.73E+02  N= 9.99E-01  CJO= 1.51E-14  
+      VJ= 6.14E-01
+      M= 4.99E-01  EG= 7.99E-01  XTI= 4.00E+00)
.ENDS F1AD9X8
**********
.SUBCKT F1AD9X14  1 2 3 4
QN   1 2 3 4 MTRN
DSCH   2 1 MSCH
.MODEL  MTRN  NPN  IS= 1.95E-17  BF= 7.03E+01  VAF= 1.80E+01  IKF= 1.80E-02
+  BR= 5.30E+00  VAR= 2.08E+00  IKR= 5.23E-03  RB= 2.53E+03
+  RE= 4.87E+00  RC= 1.02E+02  XTB= 1.50E+00  EG= 1.23E+00
+  XTI= 2.14E+00  CJE= 4.44E-14  VJE= 9.06E-01  MJE= 3.49E-01  TF= 7.93E-12
+  CJC= 4.53E-14  VJC= 8.01E-01  MJC= 4.61E-01  TR= 4.84E-09  CJS= 7.51E-14
+  VJS= 7.16E-01  MJS= 4.38E-01
.MODEL MSCH D(IS= 1.95E-13  RS= 9.29E+01  N= 9.99E-01  CJO= 3.03E-14  
+      VJ= 6.14E-01
+      M= 4.99E-01  EG= 7.99E-01  XTI= 4.00E+00)
.ENDS F1AD9X14
**********
.SUBCKT F1212X8  1 2 3 4
QN   1 2 3 4 MTRN
DSCH   2 1 MSCH
.MODEL  MTRN  NPN  IS= 3.45E-17  BF= 8.62E+01  VAF= 1.44E+01  IKF= 4.05E-02
+  BR= 3.52E+00  VAR= 1.41E+00  IKR= 9.03E-03  RB= 9.51E+02
+  RE= 3.06E-01  RC= 4.54E+01  XTB= 1.50E+00  EG= 1.23E+00
+  XTI= 2.14E+00  CJE= 7.26E-14  VJE= 9.99E-01  MJE= 3.71E-01  TF= 6.83E-12
+  CJC= 7.75E-14  VJC= 7.70E-01  MJC= 4.43E-01  TR= 9.70E-09  CJS= 1.10E-13
+  VJS= 6.88E-01  MJS= 4.38E-01
.MODEL MSCH D(IS= 1.46E-13  RS= 1.18E+02  N= 9.99E-01  CJO= 2.27E-14  
+      VJ= 6.14E-01
+      M= 4.99E-01  EG= 7.99E-01  XTI= 4.00E+00)
.ENDS F1212X8
**********
.SUBCKT F1216X14  1 2 3 4
QN   1 2 3 4 MTRN
DSCH   2 1 MSCH
.MODEL  MTRN  NPN  IS= 3.45E-17  BF= 8.62E+01  VAF= 1.44E+01  IKF= 4.05E-02
+  BR= 3.52E+00  VAR= 1.41E+00  IKR= 9.03E-03  RB= 9.51E+02
+  RE= 3.06E-01  RC= 4.54E+01  XTB= 1.50E+00  EG= 1.23E+00
+  XTI= 2.14E+00  CJE= 7.26E-14  VJE= 9.99E-01  MJE= 3.71E-01  TF= 6.83E-12
+  CJC= 7.75E-14  VJC= 7.70E-01  MJC= 4.43E-01  TR= 9.70E-09  CJS= 1.10E-13
+  VJS= 6.88E-01  MJS= 4.38E-01
.MODEL MSCH D(IS= 4.22E-13  RS= 6.25E+01  N= 9.99E-01  CJO= 6.56E-14  
+      VJ= 6.14E-01
+      M= 4.99E-01  EG= 7.99E-01  XTI= 4.00E+00)
.ENDS F1216X14
**********
.SUBCKT F1414X8  1 2 3 4
QN   1 2 3 4 MTRN
DSCH   2 1 MSCH
.MODEL  MTRN  NPN  IS= 4.12E-17  BF= 8.73E+01  VAF= 1.43E+01  IKF= 4.89E-02
+  BR= 3.68E+00  VAR= 1.38E+00  IKR= 1.09E-02  RB= 6.38E+02
+  RE= 2.55E-01  RC= 6.08E+01  XTB= 1.50E+00  EG= 1.23E+00
+  XTI= 2.14E+00  CJE= 8.55E-14  VJE= 9.99E-01  MJE= 3.72E-01  TF= 6.77E-12
+  CJC= 8.99E-14  VJC= 7.69E-01  MJC= 4.43E-01  TR= 9.42E-09  CJS= 1.20E-13
+  VJS= 6.92E-01  MJS= 4.40E-01
.MODEL MSCH D(IS= 1.95E-13  RS= 9.29E+01  N= 9.99E-01  CJO= 3.03E-14  
+      VJ= 6.14E-01
+      M= 4.99E-01  EG= 7.99E-01  XTI= 4.00E+00)
.ENDS F1414X8
**********
.SUBCKT F1416X14  1 2 3 4
QN   1 2 3 4 MTRN
DSCH   2 1 MSCH
.MODEL  MTRN  NPN  IS= 4.12E-17  BF= 8.73E+01  VAF= 1.43E+01  IKF= 4.89E-02
+  BR= 3.68E+00  VAR= 1.38E+00  IKR= 1.09E-02  RB= 6.38E+02
+  RE= 2.55E-01  RC= 6.08E+01  XTB= 1.50E+00  EG= 1.23E+00
+  XTI= 2.14E+00  CJE= 8.55E-14  VJE= 9.99E-01  MJE= 3.72E-01  TF= 6.77E-12
+  CJC= 8.99E-14  VJC= 7.69E-01  MJC= 4.43E-01  TR= 9.42E-09  CJS= 1.20E-13
+  VJS= 6.92E-01  MJS= 4.40E-01
.MODEL MSCH D(IS= 4.22E-13  RS= 6.25E+01  N= 9.99E-01  CJO= 6.56E-14  
+      VJ= 6.14E-01
+      M= 4.99E-01  EG= 7.99E-01  XTI= 4.00E+00)
.ENDS F1416X14
**********
.SUBCKT F1616X14  1 2 3 4
QN   1 2 3 4 MTRN
DSCH   2 1 MSCH
.MODEL  MTRN  NPN  IS= 4.13E-17  BF= 7.37E+01  VAF= 1.77E+01  IKF= 4.00E-02
+  BR= 5.80E+00  VAR= 2.05E+00  IKR= 1.18E-02  RB= 1.29E+03
+  RE= 2.24E+00  RC= 5.35E+01  XTB= 1.50E+00  EG= 1.23E+00
+  XTI= 2.14E+00  CJE= 8.92E-14  VJE= 9.06E-01  MJE= 3.50E-01  TF= 7.66E-12
+  CJC= 8.73E-14  VJC= 8.01E-01  MJC= 4.61E-01  TR= 4.42E-09  CJS= 1.08E-13
+  VJS= 7.16E-01  MJS= 4.38E-01
.MODEL MSCH D(IS= 4.22E-13  RS= 6.25E+01  N= 9.99E-01  CJO= 6.56E-14  
+      VJ= 6.14E-01
+      M= 4.99E-01  EG= 7.99E-01  XTI= 4.00E+00)
.ENDS F1616X14
**********
.SUBCKT F1620X20  1 2 3 4
QN   1 2 3 4 MTRN
DSCH   2 1 MSCH
.MODEL  MTRN  NPN  IS= 4.13E-17  BF= 7.37E+01  VAF= 1.77E+01  IKF= 4.00E-02
+  BR= 5.80E+00  VAR= 2.05E+00  IKR= 1.18E-02  RB= 1.29E+03
+  RE= 2.24E+00  RC= 5.35E+01  XTB= 1.50E+00  EG= 1.23E+00
+  XTI= 2.14E+00  CJE= 8.92E-14  VJE= 9.06E-01  MJE= 3.50E-01  TF= 7.66E-12
+  CJC= 8.73E-14  VJC= 8.01E-01  MJC= 4.61E-01  TR= 4.42E-09  CJS= 1.08E-13
+  VJS= 7.16E-01  MJS= 4.38E-01
.MODEL MSCH D(IS= 1.08E-12  RS= 1.35E+01  N= 9.99E-01  CJO= 1.68E-13  
+      VJ= 6.14E-01
+      M= 4.99E-01  EG= 7.99E-01  XTI= 4.00E+00)
.ENDS F1620X20
**********
.SUBCKT F2424X8  1 2 3 4
QN   1 2 3 4 MTRN
DSCH   2 1 MSCH
.MODEL  MTRN  NPN  IS= 6.62E-17  BF= 7.50E+01  VAF= 1.76E+01  IKF= 6.51E-02
+  BR= 5.99E+00  VAR= 2.04E+00  IKR= 1.94E-02  RB= 9.78E+02
+  RE= 1.39E+00  RC= 3.47E+01  XTB= 1.50E+00  EG= 1.23E+00
+  XTI= 2.14E+00  CJE= 1.40E-13  VJE= 9.06E-01  MJE= 3.50E-01  TF= 7.57E-12
+  CJC= 1.35E-13  VJC= 8.01E-01  MJC= 4.61E-01  TR= 4.28E-09  CJS= 1.47E-13
+  VJS= 7.16E-01  MJS= 4.38E-01
.MODEL MSCH D(IS= 3.41E-13  RS= 5.27E+01  N= 9.99E-01  CJO= 5.30E-14  
+      VJ= 6.14E-01
+      M= 4.99E-01  EG= 7.99E-01  XTI= 4.00E+00)
.ENDS F2424X8
**********
.SUBCKT F2424X14  1 2 3 4
QN   1 2 3 4 MTRN
DSCH   2 1 MSCH
.MODEL  MTRN  NPN  IS= 6.62E-17  BF= 7.50E+01  VAF= 1.76E+01  IKF= 6.51E-02
+  BR= 5.99E+00  VAR= 2.04E+00  IKR= 1.94E-02  RB= 9.78E+02
+  RE= 1.39E+00  RC= 3.47E+01  XTB= 1.50E+00  EG= 1.23E+00
+  XTI= 2.14E+00  CJE= 1.40E-13  VJE= 9.06E-01  MJE= 3.50E-01  TF= 7.57E-12
+  CJC= 1.35E-13  VJC= 8.01E-01  MJC= 4.61E-01  TR= 4.28E-09  CJS= 1.47E-13
+  VJS= 7.16E-01  MJS= 4.38E-01
.MODEL MSCH D(IS= 6.83E-13  RS= 3.80E+01  N= 9.99E-01  CJO= 1.06E-13  
+      VJ= 6.14E-01
+      M= 4.99E-01  EG= 7.99E-01  XTI= 4.00E+00)
.ENDS F2424X14
**********
.SUBCKT F2929X8  1 2 3 4
QN   1 2 3 4 MTRN
DSCH   2 1 MSCH
.MODEL  MTRN  NPN  IS= 8.17E-17  BF= 7.54E+01  VAF= 1.75E+01  IKF= 8.09E-02
+  BR= 6.05E+00  VAR= 2.04E+00  IKR= 2.41E-02  RB= 8.15E+02
+  RE= 1.12E+00  RC= 2.85E+01  XTB= 1.50E+00  EG= 1.23E+00
+  XTI= 2.14E+00  CJE= 1.72E-13  VJE= 9.06E-01  MJE= 3.50E-01  TF= 7.54E-12
+  CJC= 1.65E-13  VJC= 8.01E-01  MJC= 4.61E-01  TR= 4.23E-09  CJS= 1.71E-13
+  VJS= 7.16E-01  MJS= 4.38E-01
.MODEL MSCH D(IS= 5.58E-13  RS= 3.50E+01  N= 9.99E-01  CJO= 8.67E-14  
+      VJ= 6.14E-01
+      M= 4.99E-01  EG= 7.99E-01  XTI= 4.00E+00)
.ENDS F2929X8
**********
.SUBCKT F2930X15  1 2 3 4
QN   1 2 3 4 MTRN
DSCH   2 1 MSCH
.MODEL  MTRN  NPN  IS= 8.17E-17  BF= 7.54E+01  VAF= 1.75E+01  IKF= 8.09E-02
+  BR= 6.05E+00  VAR= 2.04E+00  IKR= 2.41E-02  RB= 8.15E+02
+  RE= 1.12E+00  RC= 2.85E+01  XTB= 1.50E+00  EG= 1.23E+00
+  XTI= 2.14E+00  CJE= 1.72E-13  VJE= 9.06E-01  MJE= 3.50E-01  TF= 7.54E-12
+  CJC= 1.65E-13  VJC= 8.01E-01  MJC= 4.61E-01  TR= 4.23E-09  CJS= 1.71E-13
+  VJS= 7.16E-01  MJS= 4.38E-01
.MODEL MSCH D(IS= 9.51E-13  RS= 2.43E+01  N= 9.99E-01  CJO= 1.47E-13  
+      VJ= 6.14E-01
+      M= 4.99E-01  EG= 7.99E-01  XTI= 4.00E+00)
.ENDS F2930X15
**********
.SUBCKT F8009X08  1 2 3 4
QN   1 2 3 4 MTRN
DSCH   2 1 MSCH
.MODEL  MTRN  NPN  IS= 2.40E-16  BF= 7.65E+01  VAF= 1.74E+01  IKF= 2.41E-01
+  BR= 6.23E+00  VAR= 2.03E+00  IKR= 7.27E-02  RB= 2.79E+02
+  RE= 3.79E-01  RC= 1.00E+01  XTB= 1.50E+00  EG= 1.23E+00
+  XTI= 2.14E+00  CJE= 4.98E-13  VJE= 9.06E-01  MJE= 3.50E-01  TF= 7.46E-12
+  CJC= 4.70E-13  VJC= 8.01E-01  MJC= 4.61E-01  TR= 4.11E-09  CJS= 4.19E-13
+  VJS= 7.16E-01  MJS= 4.38E-01
.MODEL MSCH D(IS= 9.75E-14  RS= 1.76E+02  N= 9.99E-01  CJO= 1.51E-14  
+      VJ= 6.14E-01
+      M= 4.99E-01  EG= 7.99E-01  XTI= 4.00E+00)
.ENDS F8009X08
**********
.SUBCKT F24MD24M  1 2 3 4
QN   1 2 3 4 MTRN
DSCH   2 1 MSCH
.MODEL  MTRN  NPN  IS= 9.18E-16  BF= 7.94E+01  VAF= 1.72E+01  IKF= 9.72E-01
+  BR= 7.17E+00  VAR= 2.01E+00  IKR= 3.09E-01  RB= 7.31E+01
+  RE= 9.77E-02  RC= 4.50E+00  XTB= 1.50E+00  EG= 1.23E+00
+  XTI= 2.14E+00  CJE= 1.82E-12  VJE= 9.06E-01  MJE= 3.50E-01  TF= 7.27E-12
+  CJC= 1.56E-12  VJC= 8.01E-01  MJC= 4.61E-01  TR= 3.57E-09  CJS= 1.39E-12
+  VJS= 7.16E-01  MJS= 4.38E-01
.MODEL MSCH D(IS= 1.08E-12  RS= 1.64E+01  N= 9.99E-01  CJO= 1.69E-13  
+      VJ= 6.14E-01
+      M= 4.99E-01  EG= 7.99E-01  XTI= 4.00E+00)
.ENDS F24MD24M
**********
.SUBCKT F48MD48M  1 2 3 4
QN   1 2 3 4 MTRN
DSCH   2 1 MSCH
.MODEL  MTRN  NPN  IS= 6.76E-16  BF= 9.20E+01  VAF= 1.41E+01  IKF= 8.76E-01
+  BR= 5.16E+00  VAR= 1.12E+00  IKR= 2.28E-01  RB= 3.83E+01
+  RE= 1.51E-02  RC= 1.54E+00  XTB= 1.50E+00  EG= 1.23E+00
+  XTI= 2.14E+00  CJE= 1.31E-12  VJE= 9.99E-01  MJE= 3.72E-01  TF= 6.52E-12
+  CJC= 1.19E-12  VJC= 7.71E-01  MJC= 4.45E-01  TR= 7.64E-09  CJS= 1.26E-12
+  VJS= 6.98E-01  MJS= 4.40E-01
.MODEL MSCH D(IS= 4.32E-12  RS= 1.81E+01  N= 9.99E-01  CJO= 1.29E-13  
+      VJ= 5.70E-01
+      M= 4.98E-01  EG= 7.99E-01  XTI= 4.00E+00)
.ENDS F48MD48M
**********
.SUBCKT F64MD64M  1 2 3 4
QN   1 2 3 4 MTRN
DSCH   2 1 MSCH
.MODEL  MTRN  NPN  IS= 1.39E-15  BF= 7.98E+01  VAF= 1.72E+01  IKF= 1.52E+00
+  BR= 7.46E+00  VAR= 2.01E+00  IKR= 4.97E-01  RB= 4.53E+01
+  RE= 6.40E-02  RC= 3.93E+00  XTB= 1.50E+00  EG= 1.23E+00
+  XTI= 2.14E+00  CJE= 2.76E-12  VJE= 9.06E-01  MJE= 3.50E-01  TF= 7.24E-12
+  CJC= 2.26E-12  VJC= 8.01E-01  MJC= 4.61E-01  TR= 3.40E-09  CJS= 1.96E-12
+  VJS= 7.16E-01  MJS= 4.38E-01
.MODEL MSCH D(IS= 1.76E-12  RS= 8.37E+00  N= 9.99E-01  CJO= 2.74E-13  
+      VJ= 6.14E-01
+      M= 4.99E-01  EG= 7.99E-01  XTI= 4.00E+00)
.ENDS F64MD64M
**********
.SUBCKT F3030DRI  1 2 3 4
QN   1 2 3 4 MTRN
DSCH   2 1 MSCH
.MODEL  MTRN  NPN  IS= 1.32E-15  BF= 9.32E+01  VAF= 1.41E+01  IKF= 1.65E+00
+  BR= 3.82E+00  VAR= 1.30E+00  IKR= 3.71E-01  RB= 2.08E+01
+  RE= 7.75E-03  RC= 1.57E+00  XTB= 1.50E+00  EG= 1.23E+00
+  XTI= 2.14E+00  CJE= 2.56E-12  VJE= 1.00E+00  MJE= 3.74E-01  TF= 6.48E-12
+  CJC= 2.80E-12  VJC= 7.75E-01  MJC= 4.47E-01  TR= 9.07E-09  CJS= 2.48E-12
+  VJS= 6.91E-01  MJS= 4.37E-01
.MODEL MSCH D(IS= 9.19E-12  RS= 8.87E+00  N= 9.99E-01  CJO= 2.90E-13  
+      VJ= 5.70E-01
+      M= 4.98E-01  EG= 7.99E-01  XTI= 4.00E+00)
.ENDS F3030DRI
**********
.MODEL  FQ1A  NPN  IS= 1.95E-17  BF= 7.03E+01  VAF= 1.80E+01  IKF= 1.80E-02
+  BR= 5.30E+00  VAR= 2.08E+00  IKR= 5.23E-03  RB= 2.53E+03
+  RE= 4.87E+00  RC= 1.02E+02  XTB= 1.50E+00  EG= 1.23E+00
+  XTI= 2.14E+00  CJE= 4.44E-14  VJE= 9.06E-01  MJE= 3.49E-01  TF= 7.93E-12
+  CJC= 4.53E-14  VJC= 8.01E-01  MJC= 4.61E-01  TR= 4.84E-09  CJS= 7.51E-14
+  VJS= 7.16E-01  MJS= 4.38E-01
**********
.MODEL  FQ12A  NPN  IS= 3.45E-17  BF= 8.62E+01  VAF= 1.44E+01  IKF= 4.05E-02
+  BR= 3.52E+00  VAR= 1.41E+00  IKR= 9.03E-03  RB= 9.51E+02
+  RE= 3.06E-01  RC= 4.54E+01  XTB= 1.50E+00  EG= 1.23E+00
+  XTI= 2.14E+00  CJE= 7.26E-14  VJE= 9.99E-01  MJE= 3.71E-01  TF= 6.83E-12
+  CJC= 7.75E-14  VJC= 7.70E-01  MJC= 4.43E-01  TR= 9.70E-09  CJS= 1.10E-13
+  VJS= 6.88E-01  MJS= 4.38E-01
**********
.MODEL  FQ14A  NPN  IS= 4.12E-17  BF= 8.73E+01  VAF= 1.43E+01  IKF= 4.89E-02
+  BR= 3.68E+00  VAR= 1.38E+00  IKR= 1.09E-02  RB= 6.38E+02
+  RE= 2.55E-01  RC= 6.08E+01  XTB= 1.50E+00  EG= 1.23E+00
+  XTI= 2.14E+00  CJE= 8.55E-14  VJE= 9.99E-01  MJE= 3.72E-01  TF= 6.77E-12
+  CJC= 8.99E-14  VJC= 7.69E-01  MJC= 4.43E-01  TR= 9.42E-09  CJS= 1.20E-13
+  VJS= 6.92E-01  MJS= 4.40E-01
**********
.MODEL  FQ16A  NPN  IS= 4.13E-17  BF= 7.37E+01  VAF= 1.77E+01  IKF= 4.00E-02
+  BR= 5.80E+00  VAR= 2.05E+00  IKR= 1.18E-02  RB= 1.29E+03
+  RE= 2.24E+00  RC= 5.35E+01  XTB= 1.50E+00  EG= 1.23E+00
+  XTI= 2.14E+00  CJE= 8.92E-14  VJE= 9.06E-01  MJE= 3.50E-01  TF= 7.66E-12
+  CJC= 8.73E-14  VJC= 8.01E-01  MJC= 4.61E-01  TR= 4.42E-09  CJS= 1.08E-13
+  VJS= 7.16E-01  MJS= 4.38E-01
**********
.MODEL  FQ24A  NPN  IS= 6.62E-17  BF= 7.50E+01  VAF= 1.76E+01  IKF= 6.51E-02
+  BR= 5.99E+00  VAR= 2.04E+00  IKR= 1.94E-02  RB= 9.78E+02
+  RE= 1.39E+00  RC= 3.47E+01  XTB= 1.50E+00  EG= 1.23E+00
+  XTI= 2.14E+00  CJE= 1.40E-13  VJE= 9.06E-01  MJE= 3.50E-01  TF= 7.57E-12
+  CJC= 1.35E-13  VJC= 8.01E-01  MJC= 4.61E-01  TR= 4.28E-09  CJS= 1.47E-13
+  VJS= 7.16E-01  MJS= 4.38E-01
**********
.MODEL  FQ29A  NPN  IS= 8.17E-17  BF= 7.54E+01  VAF= 1.75E+01  IKF= 8.09E-02
+  BR= 6.05E+00  VAR= 2.04E+00  IKR= 2.41E-02  RB= 8.15E+02
+  RE= 1.12E+00  RC= 2.85E+01  XTB= 1.50E+00  EG= 1.23E+00
+  XTI= 2.14E+00  CJE= 1.72E-13  VJE= 9.06E-01  MJE= 3.50E-01  TF= 7.54E-12
+  CJC= 1.65E-13  VJC= 8.01E-01  MJC= 4.61E-01  TR= 4.23E-09  CJS= 1.71E-13
+  VJS= 7.16E-01  MJS= 4.38E-01
**********
.MODEL  FQ24M  NPN  IS= 9.18E-16  BF= 7.94E+01  VAF= 1.72E+01  IKF= 9.72E-01
+  BR= 7.17E+00  VAR= 2.01E+00  IKR= 3.09E-01  RB= 7.31E+01
+  RE= 9.77E-02  RC= 4.50E+00  XTB= 1.50E+00  EG= 1.23E+00
+  XTI= 2.14E+00  CJE= 1.82E-12  VJE= 9.06E-01  MJE= 3.50E-01  TF= 7.27E-12
+  CJC= 1.56E-12  VJC= 8.01E-01  MJC= 4.61E-01  TR= 3.57E-09  CJS= 1.39E-12
+  VJS= 7.16E-01  MJS= 4.38E-01
**********
.MODEL  FQ48M  NPN  IS= 6.76E-16  BF= 9.20E+01  VAF= 1.41E+01  IKF= 8.76E-01
+  BR= 5.16E+00  VAR= 1.12E+00  IKR= 2.28E-01  RB= 3.83E+01
+  RE= 1.51E-02  RC= 1.54E+00  XTB= 1.50E+00  EG= 1.23E+00
+  XTI= 2.14E+00  CJE= 1.31E-12  VJE= 9.99E-01  MJE= 3.72E-01  TF= 6.52E-12
+  CJC= 1.19E-12  VJC= 7.71E-01  MJC= 4.45E-01  TR= 7.64E-09  CJS= 1.26E-12
+  VJS= 6.98E-01  MJS= 4.40E-01
**********
.MODEL  FQ64M  NPN  IS= 1.39E-15  BF= 7.98E+01  VAF= 1.72E+01  IKF= 1.52E+00
+  BR= 7.46E+00  VAR= 2.01E+00  IKR= 4.97E-01  RB= 4.53E+01
+  RE= 6.40E-02  RC= 3.93E+00  XTB= 1.50E+00  EG= 1.23E+00
+  XTI= 2.14E+00  CJE= 2.76E-12  VJE= 9.06E-01  MJE= 3.50E-01  TF= 7.24E-12
+  CJC= 2.26E-12  VJC= 8.01E-01  MJC= 4.61E-01  TR= 3.40E-09  CJS= 1.96E-12
+  VJS= 7.16E-01  MJS= 4.38E-01
**********
.MODEL  FQDAR  NPN  IS= 5.76E-16  BF= 7.94E+01  VAF= 1.72E+01  IKF= 6.52E-01
+  BR= 7.79E+00  VAR= 2.01E+00  IKR= 2.18E-01  RB= 1.01E+02
+  RE= 1.55E-01  RC= 1.11E+01  XTB= 1.50E+00  EG= 1.23E+00
+  XTI= 2.14E+00  CJE= 1.14E-12  VJE= 9.06E-01  MJE= 3.50E-01  TF= 7.27E-12
+  CJC= 8.99E-13  VJC= 8.01E-01  MJC= 4.61E-01  TR= 3.27E-09  CJS= 8.16E-13
+  VJS= 7.16E-01  MJS= 4.38E-01
**********
.MODEL  FQ30DAR  NPN  IS= 1.48E-15  BF= 9.95E+01  VAF= 1.38E+01  IKF= 1.98E+00
+  BR= 5.59E+00  VAR= 1.24E+00  IKR= 5.24E-01  RB= 1.80E+01
+  RE= 6.75E-03  RC= 2.24E+00  XTB= 1.50E+00  EG= 1.23E+00
+  XTI= 2.14E+00  CJE= 2.66E-12  VJE= 9.99E-01  MJE= 3.73E-01  TF= 6.19E-12
+  CJC= 2.27E-12  VJC= 7.71E-01  MJC= 4.46E-01  TR= 6.54E-09  CJS= 2.04E-12
+  VJS= 6.97E-01  MJS= 4.39E-01
**********
.MODEL  FQ30DRI  NPN  IS= 1.32E-15  BF= 9.32E+01  VAF= 1.41E+01  IKF= 1.65E+00
+  BR= 3.82E+00  VAR= 1.30E+00  IKR= 3.71E-01  RB= 2.08E+01
+  RE= 7.75E-03  RC= 1.57E+00  XTB= 1.50E+00  EG= 1.23E+00
+  XTI= 2.14E+00  CJE= 2.56E-12  VJE= 1.00E+00  MJE= 3.74E-01  TF= 6.48E-12
+  CJC= 2.80E-12  VJC= 7.75E-01  MJC= 4.47E-01  TR= 9.07E-09  CJS= 2.48E-12
+  VJS= 6.91E-01  MJS= 4.37E-01
**********
.MODEL  FQ80A  NPN  IS= 2.40E-16  BF= 7.65E+01  VAF= 1.74E+01  IKF= 2.41E-01
+  BR= 6.23E+00  VAR= 2.03E+00  IKR= 7.27E-02  RB= 2.79E+02
+  RE= 3.79E-01  RC= 1.00E+01  XTB= 1.50E+00  EG= 1.23E+00
+  XTI= 2.14E+00  CJE= 4.98E-13  VJE= 9.06E-01  MJE= 3.50E-01  TF= 7.46E-12
+  CJC= 4.70E-13  VJC= 8.01E-01  MJC= 4.61E-01  TR= 4.11E-09  CJS= 4.19E-13
+  VJS= 7.16E-01  MJS= 4.38E-01
**********
.MODEL FD9X4 D(IS= 4.87E-14  RS= 2.91E+02  N= 9.99E-01  CJO= 7.57E-15  
+      VJ= 6.14E-01
+      M= 4.99E-01  EG= 7.99E-01  XTI= 4.00E+00)
**********
.MODEL FD9X5 D(IS= 6.50E-14  RS= 1.92E+02  N= 9.99E-01  CJO= 1.00E-14  
+      VJ= 6.14E-01
+      M= 4.99E-01  EG= 7.99E-01  XTI= 4.00E+00)
**********
.MODEL FD9X8 D(IS= 9.75E-14  RS= 1.76E+02  N= 9.99E-01  CJO= 1.51E-14  
+      VJ= 6.14E-01
+      M= 4.99E-01  EG= 7.99E-01  XTI= 4.00E+00)
**********
.SUBCKT FD9X9  1 2 3
DDIO 1 2 MSCH
DSUB 3 2 MSUB; OFF
.MODEL MSCH D(IS= 4.91E-18  RS= 4.67E+01  N= 9.99E-01  CJO= 2.87E-14  
+      VJ= 7.91E-01
+      M= 4.48E-01  EG= 7.99E-01  XTI= 4.00E+00)
.MODEL MSUB D(CJO= 7.35E-14  VJ= 7.12E-01  M= 4.48E-01)
.ENDS FD9X9
**********
.MODEL FD9X14 D(IS= 1.95E-13  RS= 9.29E+01  N= 9.99E-01  CJO= 3.03E-14  
+      VJ= 6.14E-01
+      M= 4.99E-01  EG= 7.99E-01  XTI= 4.00E+00)
**********
.MODEL FD12X8 D(IS= 1.46E-13  RS= 1.20E+02  N= 9.99E-01  CJO= 2.27E-14  
+      VJ= 6.14E-01
+      M= 4.99E-01  EG= 7.99E-01  XTI= 4.00E+00)
**********
.MODEL FD14X8 D(IS= 1.95E-13  RS= 9.29E+01  N= 9.99E-01  CJO= 3.03E-14  
+      VJ= 6.14E-01
+      M= 4.99E-01  EG= 7.99E-01  XTI= 4.00E+00)
**********
.MODEL FD16X8 D(IS= 2.11E-13  RS= 8.98E+01  N= 9.99E-01  CJO= 3.28E-14  
+      VJ= 6.14E-01
+      M= 4.99E-01  EG= 7.99E-01  XTI= 4.00E+00)
**********
.MODEL FD16X14 D(IS= 4.22E-13  RS= 6.25E+01  N= 9.99E-01  CJO= 6.56E-14  
+      VJ= 6.14E-01
+      M= 4.99E-01  EG= 7.99E-01  XTI= 4.00E+00)
**********
.MODEL FD20X20 D(IS= 1.08E-12  RS= 1.35E+01  N= 9.99E-01  CJO= 1.68E-13  
+      VJ= 6.14E-01
+      M= 4.99E-01  EG= 7.99E-01  XTI= 4.00E+00)
**********
.MODEL FD20X80 D(IS= 4.33E-12  RS= 3.47E+00  N= 9.99E-01  CJO= 6.73E-13  
+      VJ= 6.14E-01
+      M= 4.99E-01  EG= 7.99E-01  XTI= 4.00E+00)
**********
.MODEL FD24X4 D(IS= 1.70E-13  RS= 8.42E+01  N= 9.99E-01  CJO= 2.65E-14  
+      VJ= 6.14E-01
+      M= 4.99E-01  EG= 7.99E-01  XTI= 4.00E+00)
**********
.MODEL FD24X5 D(IS= 2.27E-13  RS= 6.54E+01  N= 9.99E-01  CJO= 3.53E-14  
+      VJ= 6.14E-01
+      M= 4.99E-01  EG= 7.99E-01  XTI= 4.00E+00)
**********
.MODEL FD24X8 D(IS= 3.41E-13  RS= 5.34E+01  N= 9.99E-01  CJO= 5.30E-14  
+      VJ= 6.14E-01
+      M= 4.99E-01  EG= 7.99E-01  XTI= 4.00E+00)
*
**********
.MODEL FD24X14 D(IS= 6.83E-13  RS= 3.80E+01  N= 9.99E-01  CJO= 1.06E-13  
+      VJ= 6.14E-01
+      M= 4.99E-01  EG= 7.99E-01  XTI= 4.00E+00)
**********
.MODEL FD29X8 D(IS= 5.58E-13  RS= 3.56E+01  N= 9.99E-01  CJO= 8.67E-14  
+      VJ= 6.14E-01
+      M= 4.99E-01  EG= 7.99E-01  XTI= 4.00E+00)
**********
.MODEL FD30X15 D(IS= 9.51E-13  RS= 2.49E+01  N= 9.99E-01  CJO= 1.47E-13  
+      VJ= 6.14E-01
+      M= 4.99E-01  EG= 7.99E-01  XTI= 4.00E+00)
**********
.MODEL FD24M D(IS= 1.08E-12  RS= 1.64E+01  N= 9.99E-01  CJO= 1.69E-13  