*****
*SYM=FRAME
.SUBCKT FRAME 1
.ENDS
**********
*SYM=FRAME2
.SUBCKT FRAME2 1
.ENDS
**********
*SYM=FRAME3
.SUBCKT FRAME3 1
.ENDS
**********
*SYM=FRAME4
.SUBCKT FRAME4 1
.ENDS
**********
*SYM=FRAME5
.SUBCKT FRAME5 1
.ENDS
**********
*SYM=FRAME6
.SUBCKT FRAME6 1
.ENDS
**********
*SYM=FRAME7
.SUBCKT FRAME7 1
.ENDS
*****