**********************************
* Model created by               *
*   Uni.Dipl.-Ing. Arpad Buermen *
*   arpad.burmen@ieee.org        *
* Copyright:                     *
*   Thomatronik GmbH, Germany    *
*   info@thomatronik.de          *
**********************************
* November 2000
*   SPICE3
*                    anode     cathode
* Reverse direction: node 9 <- node 2
*$
**********************************
* Model created by               *
*   Uni.Dipl.-Ing. Arpad Buermen *
*   arpad.burmen@ieee.org        *
* Copyright:                     *
*   Thomatronik GmbH, Germany    *
*   info@thomatronik.de          *
* Formated Pspice By ALS DESIGN  *
* May 2001                       * 
**********************************
.SUBCKT 1_5ke100a 9 2
DF 9 90 DFMOD
.MODEL DFMOD D N = 1.82488 IS = 5.01399E-008 RS = 0.00763893
+ EG = 1.11 XTI = 3
+ CJO = 4E-010 VJ = 1.43005 M = 0.35 FC = 0.5
+ TT = 1E-008 TNOM=25
* Leakage
RL 9 90 RLMOD 1.026E+008
.MODEL RLMOD RES TC1 = 0 TC2 = 0 
* Breakdown
RBD 90 4 3.35237
EBD 4 3 10 20 1
DBD 3 9 DBDMOD 
.MODEL DBDMOD D IS = 1E-015 N = 0.5  T_ABS=25 TNOM=25
IBVC 0 10 0.001
RBVC 10 0 RBVCMOD 100000
.MODEL RBVCMOD RES TC1 = 0.00106
RBDX 20 23 3.35237
DBVC 23 0 DBDMOD 
IBVD 0 20 0.001
L1 90 2 1E-015
.ENDS 1_5ke100a
*$
**********************************
* Model created by               *
*   Uni.Dipl.-Ing. Arpad Buermen *
*   arpad.burmen@ieee.org        *
* Copyright:                     *
*   Thomatronik GmbH, Germany    *
*   info@thomatronik.de          *
* Formated Pspice By ALS DESIGN  *
* May 2001                       *
**********************************
* November 2000
*   SPICE3
* Bidirectional
.SUBCKT 1_5ke100ca 1 2
DF 9 90 DFMOD
.MODEL DFMOD D N = 1 IS = 5E-008 RS = 0.0339481 T_ABS=25
+ EG = 1.11 XTI = 3
+ CJO = 1.3E-009 VJ = 1.57797 M = 0.5 FC = 0.5
+ TT = 1E-008 TNOM=25
* Leakage
RLF 9 90 RLMOD 1.026E+008 
RLR 1 9 RLMOD 1.026E+008
.MODEL RLMOD RES TC1 = 0 TC2 = 0 
* Breakdown
RBD 90 4 3.30127
EBD 4 3 10 20 1
DBD 3 9 DBDMOD 
* Reverse
DR 9 1 DFMOD
RBDR 1 94 3.30127
EBDR 94 93 10 20 1
DBDR 93 9 DBDMOD 
.MODEL DBDMOD D IS = 1E-015 N = 0.5  T_ABS=25 TNOM=25
IBVC 0 10 0.001
RBVC 10 0 RBVCMOD 100000
.MODEL RBVCMOD RES TC1 = 0.00075 
RBDX 20 23 3.30127
DBVC 23 22 DBDMOD 
DBVF 22 0 DFMOD 
IBVD 0 20 0.001
L1 90 2 1E-015
.ENDS 1_5ke100ca
*$
**********************************
* Model created by               *
*   Uni.Dipl.-Ing. Arpad Buermen *
*   arpad.burmen@ieee.org        *
* Copyright:                     *
*   Thomatronik GmbH, Germany    *
*   info@thomatronik.de          *
* Formated Pspice By ALS DESIGN  *
* May 2001                       * 
**********************************
.SUBCKT 1_5ke12a 9 2
DF 9 90 DFMOD
.MODEL DFMOD D N = 2.09833 IS = 3.73178E-007 RS = 0.00707313
+ EG = 1.11 XTI = 3
+ CJO = 3E-009 VJ = 3.08734 M = 0.35 FC = 0.5
+ TT = 1E-008 TNOM = 25
* Leakage
RL 9 90 2.448E+006 RLMOD
.MODEL RLMOD RES TC1 = 0 TC2 = 0 TNOM = 25
* Breakdown
RBD 90 4 0.0504581
EBD 4 3 10 20 1
DBD 3 9 DBDMOD 
.MODEL DBDMOD D IS = 1E-015 N = 0.5 TNOM = 25 T_ABS=25
IBVC 0 10 0.001
RBVC 10 0 RBVCMOD 12000
.MODEL RBVCMOD RES TC1 = 0.0005 TNOM = 25
RBDX 20 23 0.0504581
DBVC 23 0 DBDMOD
IBVD 0 20 0.001
L1 90 2 1E-015
.ENDS 1_5ke12a
*$
**********************************
* Model created by               *
*   Uni.Dipl.-Ing. Arpad Buermen *
*   arpad.burmen@ieee.org        *
* Copyright:                     *
*   Thomatronik GmbH, Germany    *
*   info@thomatronik.de          *
* Formated Pspice By ALS DESIGN  *
* May 2001                       * 
**********************************
* December 2000
*   SPICE3
* Bidirectional
.SUBCKT 1_5ke12ca 1 2
DF 9 90 DFMOD
.MODEL DFMOD D N = 1 IS = 2.5E-007 RS = 0.000523391 T_ABS=25
+ EG = 1.11 XTI = 3
+ CJO = 1.1E-008 VJ = 0.719449 M = 0.5 FC = 0.5
+ TT = 1E-008 TNOM = 25
* Leakage
RLF 9 90 RLMOD 2.448E+006 
RLR 1 9 RLMOD 2.448E+006
.MODEL RLMOD RES TC1 = 0 TC2 = 0 TNOM = 25
* Breakdown
RBD 90 4 0.0467386
EBD 4 3 10 20 1
DBD 3 9 DBDMOD 
* Reverse
DR 9 1 DFMOD 
RBDR 1 94 0.0467386
EBDR 94 93 10 20 1
DBDR 93 9 DBDMOD 
.MODEL DBDMOD D IS = 1E-015 N = 0.5 TNOM = 25 T_ABS=25
IBVC 0 10 0.001
RBVC 10 0 RBVCMOD 12000
.MODEL RBVCMOD RES TC1 = 0.000208333 TNOM = 25
RBDX 20 23 0.0467386
DBVC 23 22 DBDMOD 
DBVF 22 0 DFMOD
IBVD 0 20 0.001
L1 90 2 1E-015
.ENDS 1_5ke12ca
*$
**********************************
* Model created by               *
*   Uni.Dipl.-Ing. Arpad Buermen *
*   arpad.burmen@ieee.org        *
* Copyright:                     *
*   Thomatronik GmbH, Germany    *
*   info@thomatronik.de          *
* Formated Pspice By ALS DESIGN  *
* May 2001                       * 
**********************************
* November 2000
*   SPICE3
*                    anode     cathode
* Reverse direction: node 9 <- node 2
.SUBCKT 1_5ke200a 9 2
DF 9 90 DFMOD
.MODEL DFMOD D N = 1.89322 IS = 9.08767E-008 RS = 0.00748952
+ EG = 1.11 XTI = 3
+ CJO = 1.9E-010 VJ = 1.15828 M = 0.35 FC = 0.5
+ TT = 1E-008 TNOM = 25
* Leakage
RL 9 90 RLMOD 2.052E+008
.MODEL RLMOD RES TC1 = 0 TC2 = 0 TNOM = 25
* Breakdown
RBD 90 4 13.3101
EBD 4 3 10 20 1
DBD 3 9 DBDMOD 
.MODEL DBDMOD D IS = 1E-015 N = 0.5 TNOM = 25 T_ABS=25
IBVC 0 10 0.001
RBVC 10 0 RBVCMOD 200000
.MODEL RBVCMOD RES TC1 = 0.00108 TNOM = 25
RBDX 20 23 13.3101
DBVC 23 0 DBDMOD
IBVD 0 20 0.001
L1 90 2 1E-015
.ENDS 1_5ke200a
*$
**********************************
* Model created by               *
*   Uni.Dipl.-Ing. Arpad Buermen *
*   arpad.burmen@ieee.org        *
* Copyright:                     *
*   Thomatronik GmbH, Germany    *
*   info@thomatronik.de          *
* Formated Pspice By ALS DESIGN  *
* May 2001                       * 
**********************************
* November 2000
*   SPICE3
* Bidirectional
.SUBCKT 1_5ke200ca 1 2
DF 9 90 DFMOD
.MODEL DFMOD D N = 1 IS = 5E-008 RS = 0.13457
+ EG = 1.11 XTI = 3
+ CJO = 6.6E-010 VJ = 1.425 M = 0.5 FC = 0.5
+ TT = 1E-008 TNOM = 25 T_ABS=25
* Leakage
RLF 9 90 RLMOD 2.052E+008 
RLR 1 9 RLMOD 2.052E+008 
.MODEL RLMOD RES TC1 = 0 TC2 = 0 TNOM = 25
* Breakdown
RBD 90 4 13.1598
EBD 4 3 10 20 1
DBD 3 9 DBDMOD 
* Reverse
DR 9 1 DFMOD T
RBDR 1 94 13.1598
EBDR 94 93 10 20 1
DBDR 93 9 DBDMOD 
.MODEL DBDMOD D IS = 1E-015 N = 0.5 TNOM = 25 T_ABS=25
IBVC 0 10 0.001
RBVC 10 0 RBVCMOD 200000
.MODEL RBVCMOD RES TC1 = 0.0007 TNOM = 25
RBDX 20 23 13.1598
DBVC 23 22 DBDMOD 
DBVF 22 0 DFMOD 
IBVD 0 20 0.001
L1 90 2 1E-015
.ENDS 1_5ke200ca
*$
**********************************
* Model created by               *
*   Uni.Dipl.-Ing. Arpad Buermen *
*   arpad.burmen@ieee.org        *
* Copyright:                     *
*   Thomatronik GmbH, Germany    *
*   info@thomatronik.de          *
* Formated Pspice By ALS DESIGN  *
* May 2001                       * 
**********************************
* December 2000
*   SPICE3
*                    anode     cathode
* Reverse direction: node 9 <- node 2
.SUBCKT 1_5ke36 9 2
DF 9 90 DFMOD
.MODEL DFMOD D N = 1.82488 IS = 5.01399E-008 RS = 0.00763893
+ EG = 1.11 XTI = 3
+ CJO = 1E-009 VJ = 2.28991 M = 0.35 FC = 0.5
+ TT = 1E-008 TNOM = 25
* Leakage
RL 9 90 RLMOD 3.492E+007
.MODEL RLMOD RES TC1 = 0 TC2 = 0 TNOM = 25
* Breakdown
RBD 90 4 0.547031
EBD 4 3 10 20 1
DBD 3 9 DBDMOD 
.MODEL DBDMOD D IS = 1E-015 N = 0.5 TNOM = 25 T_ABS=25
IBVC 0 10 0.001
RBVC 10 0 RBVCMOD 36000
.MODEL RBVCMOD RES TC1 = 0.000916667 TNOM = 25
RBDX 20 23 0.547031
DBVC 23 0 DBDMOD 
IBVD 0 20 0.001
L1 90 2 1E-015
.ENDS 1_5ke36
*$
**********************************
* Model created by               *
*   Uni.Dipl.-Ing. Arpad Buermen *
*   arpad.burmen@ieee.org        *
* Copyright:                     *
*   Thomatronik GmbH, Germany    *
*   info@thomatronik.de          *
* Formated Pspice By ALS DESIGN  *
* May 2001                       * 
**********************************
* December 2000
*   SPICE3
* Bidirectional
.SUBCKT 1_5ke36c 1 2
DF 9 90 DFMOD
.MODEL DFMOD D N = 1 IS = 5E-008 RS = 0.00555575
+ EG = 1.11 XTI = 3
+ CJO = 3.4E-009 VJ = 0.897915 M = 0.5 FC = 0.5
+ TT = 1E-008 TNOM = 25 T_ABS=25
* Leakage
RLF 9 90 RLMOD 3.492E+007
RLR 1 9 RLMOD 3.492E+007 
.MODEL RLMOD RES TC1 = 0 TC2 = 0 TNOM = 25
* Breakdown
RBD 90 4 0.533959
EBD 4 3 10 20 1
DBD 3 9 DBDMOD 
* Reverse
DR 9 1 DFMOD 
RBDR 1 94 0.533959
EBDR 94 93 10 20 1
DBDR 93 9 DBDMOD 
.MODEL DBDMOD D IS = 1E-015 N = 0.5 TNOM = 25 T_ABS=25
IBVC 0 10 0.001
RBVC 10 0 RBVCMOD 36000
.MODEL RBVCMOD R TC1 = 0.000555556 TNOM = 25
RBDX 20 23 0.533959
DBVC 23 22 DBDMOD 
DBVF 22 0 DFMOD
IBVD 0 20 0.001
L1 90 2 1E-015
.ENDS 1_5ke36c
*$
.SUBCKT 1_5ke440a 7 1
**************************************
*      Model Generated by MODPEX     *
*Copyright(c) Symmetry Design Systems*
*         All Rights Reserved        *
*    UNPUBLISHED LICENSED SOFTWARE   *
*   Contains Proprietary Information *
*      Which is The Property of      *
*     SYMMETRY OR ITS LICENSORS      *
*Commercial Use or Resale Restricted *
*   by Symmetry License Agreement    *
**************************************
* Model generated on Feb 21, 00
* MODEL FORMAT: PSPICE
*     anode cathode
*node: 7      1
*    Forward Section
D1 2 1 MDD1
.MODEL MDD1 D IS=1.53614e-15 N=1 XTI=1 RS=0.025 T_ABS=25
+ CJO=1e-10 TT=1e-08
*    Leakage Current
R 1 2 MDR 3.76e+09
.MODEL MDR RES (TC1=0 TC2=0)
*    Breakdown
RZ 2 3 64.7596 
D3 4 3 MDD3
.MODEL MDD3 D T_ABS=25 IS=2.5e-15 N=0.5 
EV1 1 4 6 8 1
IBV 0 6 0.001
RBV 6 0 MDRBV 440000
.MODEL MDRBV RES (TC1=0.0011)
D4 8 0 MDD3
L 7 2 1e-15
IT 0 8 0.001
.ENDS 1_5ke440a
*$
**********************************
* Model created by               *
*   Uni.Dipl.-Ing. Arpad Buermen *
*   arpad.burmen@ieee.org        *
* Copyright:                     *
*   Thomatronik GmbH, Germany    *
*   info@thomatronik.de          *
* Formated Pspice By ALS DESIGN  *
* May 2001                       * 
**********************************
* November 2000
*   SPICE3
*                    anode     cathode
* Reverse direction: node 9 <- node 2
.SUBCKT 1_5ke47a 9 2
DF 9 90 DFMOD
.MODEL DFMOD D N = 1.90525 IS = 9.85908E-008 RS = 0.00746582
+ EG = 1.11 XTI = 3
+ CJO = 7.4E-010 VJ = 1.89534 M = 0.35 FC = 0.5
+ TT = 1E-008 TNOM = 25
* Leakage
RL 9 90 RLMOD 4.824E+007
.MODEL RLMOD RES TC1 = 0 TC2 = 0 TNOM = 25
* Breakdown
RBD 90 4 0.75577
EBD 4 3 10 20 1
DBD 3 9 DBDMOD
.MODEL DBDMOD D IS = 1E-015 N = 0.5 TNOM = 25 T_ABS=25
IBVC 0 10 0.001
RBVC 10 0 RBVCMOD 47050 
.MODEL RBVCMOD Res TC1 = 0.0011 TNOM = 25
RBDX 20 23 0.75577
DBVC 23 0 DBDMOD 
IBVD 0 20 0.001
L1 90 2 1E-015
.ENDS 1_5ke47a
*$
**********************************
* Model created by               *
*   Uni.Dipl.-Ing. Arpad Buermen *
*   arpad.burmen@ieee.org        *
* Copyright:                     *
*   Thomatronik GmbH, Germany    *
*   info@thomatronik.de          *
* Formated Pspice By ALS DESIGN  *
* May 2001                       * 
**********************************
* December 2000
*   SPICE3
*                    anode     cathode
* Reverse direction: node 9 <- node 2
.SUBCKT 5kp60a 9 2
DF 9 90 DFMOD
.MODEL DFMOD D N = 1.8 IS = 1E-007 RS = 0.0254165
+ EG = 1.11 XTI = 3
+ CJO = 3.5E-009 VJ = 0.834793 M = 0.33 FC = 0.5
+ TT = 1E-008 TNOM = 25
* Leakage
RL 9 90 RLMOD 3.6E+007
.MODEL RLMOD Res TC1 = 0 TC2 = 0 TNOM = 25
* Breakdown
RBD 90 4 0.511415
EBD 4 3 10 20 1
DBD 3 9 DBDMOD 
.MODEL DBDMOD D IS = 1E-015 N = 0.5 TNOM = 25 T_ABS=25
IBVC 0 10 0.001
RBVC 10 0 RBVCMOD 70200
.MODEL RBVCMOD RES TC1 = 0.00108 TNOM = 25
RBDX 20 23 0.511415
DBVC 23 0 DBDMOD 
IBVD 0 20 0.005
L1 90 2 1E-015
.ENDS 5kp60a
*$
**********************************
* Model created by               *
*   Uni.Dipl.-Ing. Arpad Buermen *
*   arpad.burmen@ieee.org        *
* Copyright:                     *
*   Thomatronik GmbH, Germany    *
*   info@thomatronik.de          *
* Formated Pspice By ALS DESIGN  *
* May 2001                       * 
**********************************
* November 2000
*   SPICE3
*                    anode     cathode
* Reverse direction: node 9 <- node 2
.SUBCKT 5kp85a 9 2
DF 9 90 DFMOD
.MODEL DFMOD D N = 1 IS = 1E-007 RS = 0.0296758
+ EG = 1.11 XTI = 3
+ CJO = 2.2E-009 VJ = 3.71159 M = 0.5 FC = 0.5
+ TT = 1E-008 TNOM = 25
* Leakage
RL 9 90 RLMOD 5.1E+007
.MODEL RLMOD Res TC1 = 0 TC2 = 0 TNOM = 25
* Breakdown
RBD 90 4 1.0258
EBD 4 3 10 20 1
DBD 3 9 DBDMOD 
.MODEL DBDMOD D IS = 1E-015 N = 0.5 TNOM = 25 T_ABS=25
IBVC 0 10 0.001
RBVC 10 0 RBVCMOD 99100
.MODEL RBVCMOD Res TC1 = 0.0011 TNOM = 25
RBDX 20 23 1.0258
DBVC 23 0 DBDMOD 
IBVD 0 20 0.005
L1 90 2 1E-015
.ENDS 5kp85a
*$
**********************************
* Model created by               *
*   Uni.Dipl.-Ing. Arpad Buermen *
*   arpad.burmen@ieee.org        *
* Copyright:                     *
*   Thomatronik GmbH, Germany    *
*   info@thomatronik.de          *
* Formated Pspice By ALS DESIGN  *
* May 2001                       * 
**********************************
* December 2000
*   SPICE3
*                    anode     cathode
* Reverse direction: node 9 <- node 2
.SUBCKT bzw04p299 9 2
DF 9 90 DFMOD
.MODEL DFMOD D N = 2 IS = 2.5E-007 RS = 0.162139
+ EG = 1.11 XTI = 3
+ CJO = 1.6E-010 VJ = 6.54114 M = 0.33 FC = 0.5
+ TT = 1E-008 TNOM = 25
* Leakage
RL 9 90 RLMOD 7.176E+007
.MODEL RLMOD Res TC1 = 0 TC2 = 0 TNOM = 25
* Breakdown
RBD 90 4 135.882
EBD 4 3 10 20 1
DBD 3 9 DBDMOD 
.MODEL DBDMOD D IS = 1E-015 N = 0.5 TNOM = 25 T_ABS=25
IBVC 0 10 0.001
RBVC 10 0 RBVCMOD 358500
.MODEL RBVCMOD Res TC1 = 0.0011 TNOM = 25
RBDX 20 23 135.882
DBVC 23 0 DBDMOD 
IBVD 0 20 0.001
L1 90 2 1E-015
.ENDS bzw04p299
*$
.SUBCKT p4ke440a 7 1
**************************************
*      Model Generated by MODPEX     *
*Copyright(c) Symmetry Design Systems*
*         All Rights Reserved        *
*    UNPUBLISHED LICENSED SOFTWARE   *
*   Contains Proprietary Information *
*      Which is The Property of      *
*     SYMMETRY OR ITS LICENSORS      *
*Commercial Use or Resale Restricted *
*   by Symmetry License Agreement    *
**************************************
* Model generated on Feb 21, 00
* MODEL FORMAT: PSPICE
*     anode cathode
*node: 7      1
*    Forward Section
D1 2 1 MDD1
.MODEL MDD1 D IS=3.84035e-16 N=1 XTI=1 RS=0.1 T_ABS=25
+ CJO=5e-11 TT=1e-08
*    Leakage Current
R 1 2 MDR 3.76e+09
.MODEL MDR RES (TC1=0 TC2=0)
*    Breakdown
RZ 2 3 245.328 
D3 4 3 MDD3
.MODEL MDD3 D T_ABS=25 IS=2.5e-15 N=0.5 
EV1 1 4 6 8 1
IBV 0 6 0.001
RBV 6 0 MDRBV 440000
.MODEL MDRBV RES (TC1=0.0011)
D4 8 0 MDD3
L 7 2 1e-15
IT 0 8 0.001
.ENDS p4ke440a
*$
**********************************
* Model created by               *
*   Uni.Dipl.-Ing. Arpad Buermen *
*   arpad.burmen@ieee.org        *
* Copyright:                     *
*   Thomatronik GmbH, Germany    *
*   info@thomatronik.de          *
* Formated Pspice By ALS DESIGN  *
* May 2001                       * 
**********************************
* February 2001
*   SPICE3
*                    anode     cathode
* Reverse direction: node 9 <- node 2
.SUBCKT p6ke10 9 2
DF 9 90 DFMOD
.MODEL DFMOD D N = 2 IS = 1E-008 RS = 0.0400493
+ EG = 1.11 XTI = 3
+ CJO = 2.91E-009 VJ = 0.727453 M = 0.42 FC = 0.5
+ TT = 1E-008 TNOM = 25
* Leakage
RL 9 90 RLMOD 818310
.MODEL RLMOD R TC1 = 0 TC2 = 0 TNOM = 25
* Breakdown
RBD 90 4 0.121347
EBD 4 3 10 20 1
DBD 3 9 DBDMOD 
.MODEL DBDMOD D IS = 1E-015 N = 0.5 TNOM = 25 T_ABS=25
IBVC 0 10 0.001
RBVC 10 0 RBVCMOD 10000
.MODEL RBVCMOD Res TC1 = 0.00073 TNOM = 25
RBDX 20 23 0.121347
DBVC 23 0 DBDMOD 
IBVD 0 20 0.001
L1 90 2 1E-015
.ENDS
*$
**********************************
* Model created by               *
*   Uni.Dipl.-Ing. Arpad Buermen *
*   arpad.burmen@ieee.org        *
* Copyright:                     *
*   Thomatronik GmbH, Germany    *
*   info@thomatronik.de          *
* Formated Pspice By ALS DESIGN  *
* May 2001                       * 
**********************************
* February 2001
*   SPICE3
*                    anode     cathode
* Reverse direction: node 9 <- node 2
.SUBCKT p6ke10a 9 2
DF 9 90 DFMOD
.MODEL DFMOD D N = 2 IS = 1E-008 RS = 0.0400493
+ EG = 1.11 XTI = 3
+ CJO = 2.91E-009 VJ = 0.767867 M = 0.42 FC = 0.5
+ TT = 1E-008 TNOM = 25
* Leakage
RL 9 90 RLMOD 865790
.MODEL RLMOD Res TC1 = 0 TC2 = 0 TNOM = 25
* Breakdown
RBD 90 4 0.105155
EBD 4 3 10 20 1
DBD 3 9 DBDMOD 
.MODEL DBDMOD D IS = 1E-015 N = 0.5 TNOM = 25 T_ABS=25
IBVC 0 10 0.001
RBVC 10 0 RBVCMOD 10000
.MODEL RBVCMOD Res TC1 = 0.00073 TNOM = 25
RBDX 20 23 0.105155
DBVC 23 0 DBDMOD 
IBVD 0 20 0.001
L1 90 2 1E-015
.ENDS
*$
.SUBCKT p6ke440a 7 1
**************************************
*      Model Generated by MODPEX     *
*Copyright(c) Symmetry Design Systems*
*         All Rights Reserved        *
*    UNPUBLISHED LICENSED SOFTWARE   *
*   Contains Proprietary Information *
*      Which is The Property of      *
*     SYMMETRY OR ITS LICENSORS      *
*Commercial Use or Resale Restricted *
*   by Symmetry License Agreement    *
**************************************
* Model generated on Feb 21, 00
* MODEL FORMAT: PSPICE
*     anode cathode
*node: 7      1
*    Forward Section
D1 2 1 MDD1
.MODEL MDD1 D IS=7.68071e-16 N=1 XTI=1 RS=0.05 T_ABS=25
+ CJO=3e-11 TT=1e-08
*    Leakage Current
R 1 2 MDR 3.76e+09
.MODEL MDR RES (TC1=0 TC2=0)
*    Breakdown
RZ 2 3 161.911 
D3 4 3 MDD3
.MODEL MDD3 D T_ABS=25 IS=2.5e-15 N=0.5 
EV1 1 4 6 8 1
IBV 0 6 0.001
RBV 6 0 MDRBV 440000
.MODEL MDRBV RES (TC1=0.0011)
D4 8 0 MDD3
L 7 2 1e-15
IT 0 8 0.001
.ENDS p6ke440a
*$
**********************************
* Model created by               *
*   Uni.Dipl.-Ing. Arpad Buermen *
*   arpad.burmen@ieee.org        *
* Copyright:                     *
*   Thomatronik GmbH, Germany    *
*   info@thomatronik.de          *
* Formated Pspice By ALS DESIGN  *
* May 2001                       * 
**********************************
* February 2001
*   SPICE3
*                    anode     cathode
* Reverse direction: node 9 <- node 2
.SUBCKT p6ke8v2 9 2
DF 9 90 DFMOD
.MODEL DFMOD D N = 2 IS = 2E-007 RS = 0.0431279
+ EG = 1.11 XTI = 3
+ CJO = 3.64E-009 VJ = 0.623898 M = 0.42 FC = 0.5
+ TT = 1E-008 TNOM = 25
* Leakage
RL 9 90 RLMOD 33494.9
.MODEL RLMOD Res TC1 = 0 TC2 = 0 TNOM = 25
* Breakdown
RBD 90 4 0.0871194
EBD 4 3 10 20 1
DBD 3 9 DBDMOD 
.MODEL DBDMOD D IS = 1E-015 N = 0.5 TNOM = 25 T_ABS=25
IBVC 0 10 0.001
RBVC 10 0 RBVCMOD 8200 
.MODEL RBVCMOD Res TC1 = 0.00065 TNOM = 25
RBDX 20 23 0.0871194
DBVC 23 0 DBDMOD 
IBVD 0 20 0.01
L1 90 2 1E-015
.ENDS
*$
**********************************
* Model created by               *
*   Uni.Dipl.-Ing. Arpad Buermen *
*   arpad.burmen@ieee.org        *
* Copyright:                     *
*   Thomatronik GmbH, Germany    *
*   info@thomatronik.de          *
* Formated Pspice By ALS DESIGN  *
* May 2001                       * 
**********************************
* February 2001
*   SPICE3
*                    anode     cathode
* Reverse direction: node 9 <- node 2
.SUBCKT p6ke8v2a 9 2
DF 9 90 DFMOD
.MODEL DFMOD D N = 2 IS = 2E-007 RS = 0.0431279
+ EG = 1.11 XTI = 3
+ CJO = 3.64E-009 VJ = 0.660598 M = 0.42 FC = 0.5
+ TT = 1E-008 TNOM = 25
* Leakage
RL 9 90 RLMOD 35526.4 
.MODEL RLMOD Res TC1 = 0 TC2 = 0 TNOM = 25
* Breakdown
RBD 90 4 0.0762339
EBD 4 3 10 20 1
DBD 3 9 DBDMOD 
.MODEL DBDMOD D IS = 1E-015 N = 0.5 TNOM = 25 T_ABS=25
IBVC 0 10 0.001
RBVC 10 0 RBVCMOD 8200
.MODEL RBVCMOD Res TC1 = 0.00065 TNOM = 25
RBDX 20 23 0.0762339
DBVC 23 0 DBDMOD 
IBVD 0 20 0.01
L1 90 2 1E-015
.ENDS
*$
**********************************
* Model created by               *
*   Uni.Dipl.-Ing. Arpad Buermen *
*   arpad.burmen@ieee.org        *
* Copyright:                     *
*   Thomatronik GmbH, Germany    *
*   info@thomatronik.de          *
* Formated Pspice By ALS DESIGN  *
* May 2001                       * 
**********************************
* February 2001
*   SPICE3
*                    anode     cathode
* Reverse direction: node 9 <- node 2
.SUBCKT p6ke9v1 9 2
DF 9 90 DFMOD
.MODEL DFMOD D N = 2 IS = 5E-008 RS = 0.0417033
+ EG = 1.11 XTI = 3
+ CJO = 3.23E-009 VJ = 0.658614 M = 0.42 FC = 0.5
+ TT = 1E-008 TNOM = 25
* Leakage
RL 9 90 RLMOD 149257
.MODEL RLMOD RES TC1 = 0 TC2 = 0 TNOM = 25
* Breakdown
RBD 90 4 0.104764
EBD 4 3 10 20 1
DBD 3 9 DBDMOD 
.MODEL DBDMOD D IS = 1E-015 N = 0.5 TNOM = 25 T_ABS=25
IBVC 0 10 0.001
RBVC 10 0 RBVCMOD 9095
.MODEL RBVCMOD RES TC1 = 0.00068 TNOM = 25
RBDX 20 23 0.104764
DBVC 23 0 DBDMOD 
IBVD 0 20 0.001
L1 90 2 1E-015
.ENDS
*$
**********************************
* Model created by               *
*   Uni.Dipl.-Ing. Arpad Buermen *
*   arpad.burmen@ieee.org        *
* Copyright:                     *
*   Thomatronik GmbH, Germany    *
*   info@thomatronik.de          *
* Formated Pspice By ALS DESIGN  *
* May 2001                       * 
**********************************
* February 2001
*   SPICE3
*                    anode     cathode
* Reverse direction: node 9 <- node 2
.SUBCKT p6ke9v1a 9 2
DF 9 90 DFMOD
.MODEL DFMOD D N = 2 IS = 5E-008 RS = 0.0417033
+ EG = 1.11 XTI = 3
+ CJO = 3.23E-009 VJ = 0.695253 M = 0.42 FC = 0.5
+ TT = 1E-008 TNOM = 25
* Leakage
RL 9 90 157451 RLMOD
.MODEL RLMOD RES TC1 = 0 TC2 = 0 TNOM = 25
* Breakdown
RBD 90 4 0.0926758
EBD 4 3 10 20 1
DBD 3 9 DBDMOD 
.MODEL DBDMOD D IS = 1E-015 N = 0.5 TNOM = 25 T_ABS=25
IBVC 0 10 0.001
RBVC 10 0 RBVCMOD 9100
.MODEL RBVCMOD RES TC1 = 0.00068 TNOM = 25
RBDX 20 23 0.0926758
DBVC 23 0 DBDMOD 
IBVD 0 20 0.001
L1 90 2 1E-015
.ENDS
*$
**********************************
* Model created by               *
*   Uni.Dipl.-Ing. Arpad Buermen *
*   arpad.burmen@ieee.org        *
* Copyright:                     *
*   Thomatronik GmbH, Germany    *
*   info@thomatronik.de          *
* Formated Pspice By ALS DESIGN  *
* May 2001                       * 
**********************************
* March 2001
*   SPICE3
* Bidirectional
.SUBCKT sa5v0ca 1 2
DF 9 90 DFMOD
.MODEL DFMOD D N = 1.85483 IS = 1.44924E-008 RS = 0.0179293
+ EG = 1.11 XTI = 3
+ CJO = 4.56E-009 VJ = 0.24689 M = 0.42 FC = 0.5
+ TT = 1E-008 TNOM = 25 T_ABS=25
* Leakage
RLF 9 90 RLMOD 4212.47
RLR 1 9 RLMOD 4212.47
.MODEL RLMOD RES TC1 = 0 TC2 = 0 TNOM = 25
* Breakdown
RBD 90 4 0.0161659
EBD 4 3 10 20 1
DBD 3 9 DBDMOD 
* Reverse
DR 9 1 DFMOD 
RBDR 1 94 0.0161659
EBDR 94 93 10 20 1
DBDR 93 9 DBDMOD 
.MODEL DBDMOD D IS = 1E-015 N = 0.5 TNOM = 25 T_ABS=25
IBVC 0 10 0.001
RBVC 10 0 RBVCMOD 6825
.MODEL RBVCMOD RES TC1 = 5.86081E-005 TNOM = 25
RBDX 20 23 0.0161659
DBVC 23 22 DBDMOD 
DBVF 22 0 DFMOD 
IBVD 0 20 0.01
L1 90 2 1E-015
.ENDS
*$
**********************************
* Model created by               *
*   Uni.Dipl.-Ing. Arpad Buermen *
*   arpad.burmen@ieee.org        *
* Copyright:                     *
*   Thomatronik GmbH, Germany    *
*   info@thomatronik.de          *
* Formated Pspice By ALS DESIGN  *
* May 2001                       * 
**********************************
* March 2001
*   SPICE3
*                    anode     cathode
* Reverse direction: node 9 <- node 2
.SUBCKT sa6v0a 9 2
DF 9 90 DFMOD
.MODEL DFMOD D N = 1.85483 IS = 1.44924E-008 RS = 0.0179293
+ EG = 1.11 XTI = 3
+ CJO = 2.88E-009 VJ = 0.932207 M = 0.42 FC = 0.5
+ TT = 1E-008 TNOM = 25
* Leakage
RL 9 90 RLMOD 10109.9 
.MODEL RLMOD RES TC1 = 0 TC2 = 0 TNOM = 25
* Breakdown
RBD 90 4 0.0651727
EBD 4 3 10 20 1
DBD 3 9 DBDMOD
.MODEL DBDMOD D IS = 1E-015 N = 0.5 TNOM = 25 T_ABS=25
IBVC 0 10 0.001
RBVC 10 0 RBVCMOD 7020
.MODEL RBVCMOD RES TC1 = 0.000225071 TNOM = 25
RBDX 20 23 0.0651727
DBVC 23 0 DBDMOD
IBVD 0 20 0.01
L1 90 2 1E-015
.ENDS
*$
**********************************
* Model created by               *
*   Uni.Dipl.-Ing. Arpad Buermen *
*   arpad.burmen@ieee.org        *
* Copyright:                     *
*   Thomatronik GmbH, Germany    *
*   info@thomatronik.de          *
* Formated Pspice By ALS DESIGN  *
* May 2001                       * 
**********************************
* March 2001
*   SPICE3
* Bidirectional
.SUBCKT sa6v0ca 1 2
DF 9 90 DFMOD
.MODEL DFMOD D N = 1.85483 IS = 1.44924E-008 RS = 0.0179293
+ EG = 1.11 XTI = 3
+ CJO = 3.78E-009 VJ = 0.300202 M = 0.42 FC = 0.5
+ TT = 1E-008 TNOM = 25 T_ABS=25
* Leakage
RLF 9 90 RLMOD 5056.93 
RLR 1 9 RLMOD 5056.93 
.MODEL RLMOD RES TC1 = 0 TC2 = 0 TNOM = 25
* Breakdown
RBD 90 4 0.0390884
EBD 4 3 10 20 1
DBD 3 9 DBDMOD 
* Reverse
DR 9 1 DFMOD 
RBDR 1 94 0.0390884
EBDR 94 93 10 20 1
DBDR 93 9 DBDMOD 
.MODEL DBDMOD D IS = 1E-015 N = 0.5 TNOM = 25 T_ABS=25
IBVC 0 10 0.001
RBVC 10 0 RBVCMOD 7020
.MODEL RBVCMOD RES TC1 = 8.54701E-005 TNOM = 25
RBDX 20 23 0.0390884
DBVC 23 22 DBDMOD 
DBVF 22 0 DFMOD
IBVD 0 20 0.01
L1 90 2 1E-015
.ENDS
*$
**********************************
* Model created by               *
*   Uni.Dipl.-Ing. Arpad Buermen *
*   arpad.burmen@ieee.org        *
* Copyright:                     *
*   Thomatronik GmbH, Germany    *
*   info@thomatronik.de          *
* Formated Pspice By ALS DESIGN  *
* May 2001                       * 
**********************************
* November 2000
*   SPICE3
*                    anode     cathode
* Reverse direction: node 1 <- node 2
.SUBCKT sac5v0 1 2
DF 9 90 DFMOD 
.MODEL DFMOD D N = 1 IS = 1.5E-005 RS = 0.00480096
+ EG = 1.11 XTI = 3
+ CJO = 0.8E-010 VJ = 1 M = 0.5 FC = 0.5
+ TT = 1E-008 TNOM = 25 T_ABS=25
* Leakage
RLF 9 90 RLMOD 20000 
RLR 1 9 RLMOD 90000 
.MODEL RLMOD RES TC1 = 0 TC2 = 0 TNOM = 25
* Breakdown
RBD 90 4 0.406286
EBD 4 3 10 20 1
DBD 3 9 DBDMOD 
* Reverse
.MODEL DRMOD D N = 1 IS = 1.5E-005 RS = 0.00480096
+ EG = 1.11 XTI = 3
+ CJO = 1E-010 VJ = 1 M = 0.5 FC = 0.5
+ TT = 1E-008 TNOM = 25 T_ABS=25
+ BV = 110 IBV = 0.08
DR 9 1 DRMOD 
.MODEL DBDMOD D IS = 1E-015 N = 0.5 TNOM = 25 T_ABS=25
IBVC 0 10 0.001
RBVC 10 0 RBVCMOD 7600
.MODEL RBVCMOD RES TC1 = 0.001 TNOM = 25
RBDX 20 23 0.406286
DBVC 23 22 DBDMOD 
DBVF 22 0 DFMOD 
IBVD 0 20 0.001
L1 90 2 1E-015
.ENDS
*$
**********************************
* Model created by               *
*   Uni.Dipl.-Ing. Arpad Buermen *
*   arpad.burmen@ieee.org        *
* Copyright:                     *
*   Thomatronik GmbH, Germany    *
*   info@thomatronik.de          *
* Formated Pspice By ALS DESIGN  *
* May 2001                       * 
**********************************
* January 2001
*   SPICE3
*                    anode     cathode
* Reverse direction: node 9 <- node 2
.SUBCKT sm15t18a 9 2
DF 9 90 DFMOD
.MODEL DFMOD D N = 1.8 IS = 5E-008 RS = 0.0250959
+ EG = 1.11 XTI = 3
+ CJO = 5.41E-009 VJ = 0.226162 M = 0.33 FC = 0.5
+ TT = 1E-008 TNOM = 25
* Leakage
RL 9 90 RLMOD 2.84505E+007
.MODEL RLMOD RES TC1 = 0 TC2 = 0 TNOM = 25
* Breakdown
RBD 90 4 0.0270574
EBD 4 3 10 20 1
DBD 3 9 DBDMOD
.MODEL DBDMOD D IS = 1.17761E-011 N = 16.1377 TNOM = 25 T_ABS=25
IBVC 0 10 0.001
RBVC 10 0 RBVCMOD 18540
.MODEL RBVCMOD RES TC1 = 0.00088 TNOM = 25
RBDX 20 23 0.0270574
DBVC 23 0 DBDMOD
IBVD 0 20 0.001
L1 90 2 1E-015
.ENDS
*$
.SUBCKT smaj10a 7 1
**************************************
*      Model Generated by MODPEX     *
*Copyright(c) Symmetry Design Systems*
*         All Rights Reserved        *
*    UNPUBLISHED LICENSED SOFTWARE   *
*   Contains Proprietary Information *
*      Which is The Property of      *
*     SYMMETRY OR ITS LICENSORS      *
*Commercial Use or Resale Restricted *
*   by Symmetry License Agreement    *
**************************************
* Model generated on Feb 21, 00
* MODEL FORMAT: PSPICE
*     anode cathode
*node: 7      1
*    Forward Section
D1 2 1 MDD1
.MODEL MDD1 D IS=5.54234e-17 N=1 XTI=1 RS=0.07 T_ABS=25
+ CJO=5e-10 TT=1e-08
*    Leakage Current
R 1 2 MDR 2e+07
.MODEL MDR RES (TC1=0 TC2=0)
*    Breakdown
RZ 2 3 0.328054 
D3 4 3 MDD3
.MODEL MDD3 D T_ABS=25 IS=2.5e-15 N=0.5 
EV1 1 4 6 8 1
IBV 0 6 0.001
RBV 6 0 MDRBV 11100
.MODEL MDRBV RES (TC1=0.001)
D4 8 0 MDD3
L 7 2 1e-15
IT 0 8 0.001
.ENDS smaj10a
*$
**********************************
* Model created by               *
*   Uni.Dipl.-Ing. Arpad Buermen *
*   arpad.burmen@ieee.org        *
* Copyright:                     *
*   Thomatronik GmbH, Germany    *
*   info@thomatronik.de          *
* Formated Pspice By ALS DESIGN  *
* May 2001                       * 
**********************************
* November 2000
*   SPICE3
*                    anode     cathode
* Reverse direction: node 9 <- node 2
.SUBCKT smaj11a 9 2
DF 9 90 DFMOD
.MODEL DFMOD D N = 1 IS = 1E-012 RS = 0.108296
+ EG = 1.11 XTI = 3
+ CJO = 1.2E-009 VJ = 1.53421 M = 0.33 FC = 0.5
+ TT = 1E-008 TNOM = 25
* Leakage
RL 9 90 RLMOD 2.64E+006
.MODEL RLMOD RES TC1 = 0 TC2 = 0 TNOM = 25
* Breakdown
RBD 90 4 0.314353
EBD 4 3 10 20 1
DBD 3 9 DBDMOD
.MODEL DBDMOD D IS = 1E-015 N = 0.5 TNOM = 25 T_ABS=25
IBVC 0 10 0.001
RBVC 10 0 RBVCMOD 12850
.MODEL RBVCMOD RES TC1 = 0.001 TNOM = 25
RBDX 20 23 0.314353
DBVC 23 0 DBDMOD
IBVD 0 20 0.001
L1 90 2 1E-015
.ENDS
*$
**********************************
* Model created by               *
*   Uni.Dipl.-Ing. Arpad Buermen *
*   arpad.burmen@ieee.org        *
* Copyright:                     *
*   Thomatronik GmbH, Germany    *
*   info@thomatronik.de          *
* Formated Pspice By ALS DESIGN  *
* May 2001                       * 
**********************************
* November 2000
*   SPICE3
* Bidirectional
.SUBCKT smaj11ca 1 2
DF 9 90 DFMOD
.MODEL DFMOD D N = 1 IS = 2.5E-007 RS = 0.00324262
+ EG = 1.11 XTI = 3
+ CJO = 1.9E-009 VJ = 1.67619 M = 0.5 FC = 0.5
+ TT = 1E-008 TNOM = 25 T_ABS=25
* Leakage
RLF 9 90 RLMOD 2.64E+006 
RLR 1 9 RLMOD 2.64E+006
.MODEL RLMOD RES TC1 = 0 TC2 = 0 TNOM = 25
* Breakdown
RBD 90 4 0.295879
EBD 4 3 10 20 1
DBD 3 9 DBDMOD 
* Reverse
DR 9 1 DFMOD 
RBDR 1 94 0.295879
EBDR 94 93 10 20 1
DBDR 93 9 DBDMOD 
.MODEL DBDMOD D IS = 1E-015 N = 0.5 TNOM = 25 T_ABS=25
IBVC 0 10 0.001
RBVC 10 0 RBVCMOD 12850
.MODEL RBVCMOD RES TC1 = 0.001 TNOM = 25
RBDX 20 23 0.295879
DBVC 23 22 DBDMOD 
DBVF 22 0 DFMOD
IBVD 0 20 0.001
L1 90 2 1E-015
.ENDS
*$
**********************************
* Model created by               *
*   Uni.Dipl.-Ing. Arpad Buermen *
*   arpad.burmen@ieee.org        *
* Copyright:                     *
*   Thomatronik GmbH, Germany    *
*   info@thomatronik.de          *
* Formated Pspice By ALS DESIGN  *
* May 2001                       * 
**********************************
* November 2000
*   SPICE3
*                    anode     cathode
* Reverse direction: node 9 <- node 2
.SUBCKT smaj12a 9 2
DF 9 90 DFMOD
.MODEL DFMOD D N = 1 IS = 1E-012 RS = 0.108296