* HIP2500 MACRO MODEL SUBCIRCUIT NETLIST FOR SPICE2G.
*               vdd hin sd  lin vss vb  ho  vs  vcc lo  com
.SUBCKT HIP2500_HA 100 109 110 111 106 112 113 114 115 116 117  
IBC 115 117 +1.39999993E-03  
IBB 112 114 +2.80000007E-04  
VCON 118 0 PULSE 0 +0.99999999E-01 0 1N  
RCON 118 0 1  
V1 119 106 +0.99999999E-01  
R1 119 106 1  
VREF 120 106 +3.01300000E+00  
XIN1 100 109 106 120 XIN1_HA   
XIN2 100 110 106 120 XIN1_HA   
XIN3 100 111 106 120 XIN1_HA   
XNR100 109 100 106 101 XNR100_HA   
XNR200 110 100 106 102 XNR100_HA   
XNR300 111 100 106 103 XNR100_HA   
XST1 101 119 106 118 108 XST1_HA   
XST2 102 119 106 118 107 XST1_HA   
XST3 103 119 106 118 105 XST1_HA   
XTDL4 108 121 117 118 104 XTDL4_HA   
XTDL5 107 121 117 118 122 XTDL4_HA   
XTDL6 105 121 117 118 123 XTDL4_HA   
V2 121 117 +0.99999999E-01  
R2 121 117 1  
XSRND7 104 117 121 122 121 117 118 124 XSRND7_HA   
XSRND8 123 117 121 122 121 117 118 125 XSRND7_HA   
XUV9 115 117 121 117 118 126 XUV9_HA   
EVISO 127 117 115 117 1  
XER10 124 126 127 121 117 118 128 XER10_HA   
XEF11 124 126 127 121 117 118 129 XEF11_HA   
XER12 125 126 127 121 117 118 130 XER10_HA   
XEF13 125 126 127 121 117 118 131 XEF11_HA   
XTDL14 129 121 117 118 132 XTDL14_HA   
XTDL15 128 121 117 118 133 XTDL15_HA   
XTDL16 131 121 117 118 134 XTDL16_HA   
XTDL17 130 121 117 118 135 XTDL17_HA   
V3 136 114 +0.99999999E-01  
R3 136 114 1  
XUV18 112 114 136 114 118 137 XUV9_HA   
XSRR19 121 132 121 133 137 114 136 114 118 138 XSRR19_HA   
XSRR20 121 134 121 135 126 117 121 117 118 139 XSRR19_HA   
XDR21 138 136 114 112 118 113 XDR21_HA   
XDR22 139 121 117 115 118 116 XDR21_HA   
.ENDS
.MODEL DIOLIM D IS=+5.00000009E-13 N=+2.81862988E-02 
.SUBCKT XIN1_HA 140 141 142 109  
D6 142 141 DIODE  
D7 141 140 DIODE  
M5 141 109 142 142 NMOSIN  W=+2.20000006E-05 L=+1.50000004E-05 
+AS=+2.85999996E-10 PS=+7.00000018E-05 AD=+2.85999996E-10 PD=+7.00000018E-05 
+NRS=+2.04545451E-01 NRD=+2.04545451E-01  
.MODEL DIODE D IS=+3.87979993E-16 RS=+3.95285000E+00 N=+9.81569985E-01 
+TT=+3.55000001E-11 CJO=+1.28730001E-12 M=+3.58709995E-01 AF=+1.00000000E+00 
+FC=+4.99999993E-01 IBV=+0.99999995E-03 
.MODEL NMOSIN NMOS LEVEL=1 VTO=+2.14E+00 GAMMA=+2.51500000E+00 
+PHI=+7.20820373E-01 CGSO=+1.96591997E-10 CGDO=+1.96591997E-10 
+CGBO=+1.67912005E-09 RSH=+1.42000000E+01 PB=+7.71499989E-01 CJ=+1.53895004E-04 
+CJSW=+1.88899997E-10 MJ=+4.90999993E-01 MJSW=+4.10699994E-01 
+TOX=+0.99999999E-07 NSUB=+1.79364995E+16 LD=+1.37394000E-06 UO=+6.70677000E+02 
+KF=+1.00000000E+00 AF=+1.00000000E+00 FC=+9.49999986E-01 XJ=+1.50000000E-06 
+KP=1.293E-5 
.ENDS
.SUBCKT XNR100_HA 103 100 108 106  
R7 108 106 +1.00000000E+12  
C7 108 106 1PF  
G56 108 106 POLY 3  106 108 100 108 103 108 0 0 0 +0.99999999E-01 0 -1  
.ENDS
.SUBCKT XST1_HA 103 107 108 118 101  
G26 108 102 POLY 3  103 108 102 108 118 0 -7.30769247E-02  +1.53846154E+00 0 0 
+0 0 0 0 +1.00000000E+01  
D11 108 102 STDS1  
D12 102 108 STDS1  
C6 102 108 +1.39999998E-07  
.MODEL STDS1 D IS=+0.99999999E-07 N=+3.38235585E-02 
G16 108 101 POLY 1  102 108 +5.00000014E-09 +1.00000000E-06  
R4 101 108 +1.00000000E+07  
D13 101 107 DIOLIM  
D10 108 101 DIOLIM  
.ENDS
.SUBCKT XTDL4_HA 102 103 108 118 106  
G6 101 108 POLY 1  102 108 +2.00000004E-02 -3.99999994E-01  
D11 101 108 TDLDR4  
D9 108 101 TDLDF4  
R12 101 108 100  
.MODEL TDLDR4 D IS=+1.00000003E-20 N=+9.39543227E-03 
.MODEL TDLDF4 D IS=+1.00000003E-20 N=+9.39543227E-03 
G7 103 100 101 108 1  
C3 100 108 +2.50000007E-09  
D8 108 100 DIOLIM  
D10 100 103 DIOLIM  
XST4 100 103 108 118 106 XST4_HA   
.ENDS
.SUBCKT XST4_HA 103 107 108 118 101  
G26 108 102 POLY 3  103 108 102 108 118 0 -1.66666670E-02  +3.33333328E-01 0 0 
+0 0 0 0 +1.00000000E+01  
D11 108 102 STDS4  
D12 102 108 STDS4  
C6 102 108 +2.70000002E-08  
.MODEL STDS4 D IS=+0.99999999E-07 N=+3.38235585E-02 
G16 108 101 POLY 1  102 108 +5.00000014E-09 +1.00000000E-06  
R4 101 108 +1.00000000E+07  
D13 101 107 DIOLIM  
D10 108 101 DIOLIM  
.ENDS
.SUBCKT XSRND7_HA 107 100 104 106 108 123 118 122  
G62 102 108 POLY 2  105 123 107 100 -1.00000001E-08 0 0 0 +1.20000003E-05  
R9 102 108 +1.00000000E+06  
C6 108 102 +1.35000002E-14  
D1 123 102 DIOLIM  
D2 102 108 DIOLIM  
G68 105 108 POLY 3  102 123 104 106 118 0 -1.00000003E-09 0 0 0 0 0 0 0 0 0 0 
+0 0 0 +1.20000003E-05  
R8 105 108 +1.00000000E+07  
C7 105 108 +2.69999999E-15  
D10 123 105 DIOLIM  
D11 105 108 DIOLIM  
G61 122 108 POLY 2  108 105 107 100 0 0 0 0 +1.00000000E-06  
R90 122 108 +1.00000000E+07  
C60 108 122 +2.69999999E-15  
.ENDS
.SUBCKT XUV9_HA 100 105 107 108 118 101  
G26 108 102 POLY 3  100 105 102 108 118 0 -6.09999991E-01  +6.66666682E-02 0 0
+0 0 0 0 +1.00000000E+01  
D11 108 102 UVDS9  
D12 102 108 UVDS9  
C6 102 108 +2.00000001E-08  
.MODEL UVDS9 D IS=+0.99999999E-07 N=+3.38235585E-02 
G16 108 101 POLY 1  102 108 +5.00000014E-09 +1.00000000E-06  
R4 101 108 +1.00000000E+07  
D13 101 107 DIOLIM  
D10 108 101 DIOLIM  
.ENDS
.SUBCKT XER10_HA 107 122 115 101 123 118 106  
G19 104 101 POLY 3  101 105 118 0 122 123 0 0 0 0 0 0 0 0 0 0 0 0 0 0 
++1.00000003E-05  
R15 104 101 +1.00000000E+07  
C9 104 101 +3.59999994E-16  
G14 123 100 POLY 3  107 123 108 123 118 0 -1.00000001E-08 0 0 0 0 0 0 0 0 0 0 
+0 0 0 +1.20000003E-04  
R16 100 123 +1.00000000E+06  
C7 100 123 +8.99999997E-15  
D41 123 100 DIOLIM  
D36 100 101 DIOLIM  
G16 123 108 POLY 3  101 100 107 123 101 104 -2.00000006E-09 0 0 
++1.39999998E-07 0 0 0 0 0 0 0 0 0 0 -1.40000004E-05  
R61 123 108 +1.00000000E+07  
C10 123 108 +3.59999999E-15  
D40 123 108 DIOLIM  
D35 108 101 DIOLIM  
G13 123 103 POLY 2  108 123 107 123 0 0 0 0 +1.00000000E-06  
R11 123 103 +1.00000000E+07  
C8 103 123 +3.59999999E-15  
G12 123 102 POLY 3  106 123 101 107 118 0 -1.00000001E-08 0 0 0 0 0 0 0 0 0 0 
+0 0 0 +1.20000003E-04  
R14 102 123 +1.00000000E+06  
C5 102 123 +8.99999997E-15  
D38 123 102 DIOLIM  
D45 102 101 DIOLIM  
G15 123 106 POLY 3  101 102 101 103 101 104 -2.00000006E-09 0 0 
++1.39999998E-07 0 0 0 0 0 0 0 0 0 0 -1.40000004E-05  
R13 106 123 +1.00000000E+07  
C6 123 106 +3.59999999E-15  
D39 123 106 DIOLIM  
D46 106 101 DIOLIM  
XTDV10 106 115 101 123 118 105 XTDV10_HA   
.ENDS
.SUBCKT XTDV10_HA 102 105 103 108 118 106  
G6 101 108 POLY 1  102 108 +6.71641759E-03 -1.34328356E-01  
D11 101 108 TDVDR10  
D9 108 101 TDVDF10  
R12 101 0 100  
.MODEL TDVDR10 D IS=+2.97777787E-21 N=+2.79775094E-03 
.MODEL TDVDF10 D IS=+1.00000003E-20 N=+9.39543227E-03 
G7 105 100 101 108 1  
C3 100 108 +8.37500003E-11  
D8 108 100 DIOLIM  
D10 100 105 DIOLIM  
XNR10 100 105 108 107 XNR10_HA   
XST10 107 103 108 118 106 XST10_HA   
.ENDS
.SUBCKT XNR10_HA 103 100 108 106  
R7 108 106 +1.00000000E+12  
C7 108 106 1PF  
G56 108 106 POLY 3  106 108 100 108 103 108 0 0 0 +0.99999999E-01 0 -1  
.ENDS
.SUBCKT XST10_HA 103 107 108 118 101  
G26 108 102 POLY 3  103 108 102 108 118 0 -1.66666670E-02  +3.33333328E-01 0 0 
+0 0 0 0 +1.00000000E+01  
D11 108 102 STDS10  
D12 102 108 STDS10  
C6 102 108 +2.70000002E-08  
.MODEL STDS10 D IS=+0.99999999E-07 N=+3.38235585E-02 
G16 108 101 POLY 1  102 108 +5.00000014E-09 +1.00000000E-06  
R4 101 108 +1.00000000E+07  
D13 101 107 DIOLIM  
D10 108 101 DIOLIM  
.ENDS
.SUBCKT XEF11_HA 107 122 115 101 123 118 106  
G19 104 101 POLY 3  101 105 118 0 122 123 0 0 0 0 0 0 0 0 0 0 0 0 0 0 
++1.00000003E-05  
R15 104 101 +1.00000000E+07  
C9 104 101 +3.59999994E-16  
G14 123 100 POLY 3  101 107 108 123 118 0 -1.00000001E-08 0 0 0 0 0 0 0 0 0 0 
+0 0 0 +1.20000003E-04  
R16 100 123 +1.00000000E+06  
C7 100 123 +8.99999997E-15  
D41 123 100 DIOLIM  
D36 100 101 DIOLIM  
G16 123 108 POLY 3  101 100 101 107 101 104 -2.00000006E-09 0 0 
++1.39999998E-07 0 0 0 0 0 0 0 0 0 0 -1.40000004E-05  
R61 123 108 +1.00000000E+07  
C10 123 108 +3.59999999E-15  
D40 123 108 DIOLIM  
D35 108 101 DIOLIM  
G13 123 103 POLY 2  108 123 101 107 0 0 0 0 +1.00000000E-06  
R11 123 103 +1.00000000E+07  
C8 103 123 +3.59999999E-15  
G12 123 102 POLY 3  106 123 107 123 118 0 -1.00000001E-08 0 0 0 0 0 0 0 0 0 0 
+0 0 0 +1.20000003E-04  
R14 102 123 +1.00000000E+06  
C5 102 123 +8.99999997E-15  
D38 123 102 DIOLIM  
D45 102 101 DIOLIM  
G15 123 106 POLY 3  101 102 101 103 101 104 -2.00000006E-09 0 0 
++1.39999998E-07 0 0 0 0 0 0 0 0 0 0 -1.40000004E-05  
R13 106 123 +1.00000000E+07  
C6 123 106 +3.59999999E-15  
D39 123 106 DIOLIM  
D46 106 101 DIOLIM  
XTDV11 106 115 101 123 118 105 XTDV11_HA   
.ENDS
.SUBCKT XTDV11_HA 102 105 103 108 118 106  
G6 101 108 POLY 1  102 108 +8.35820856E-03 -1.67164177E-01  
D11 101 108 TDVDR11  
D9 108 101 TDVDF11  
R12 101 0 100  
.MODEL TDVDR11 D IS=+2.39285722E-21 N=+2.24819272E-03 
.MODEL TDVDF11 D IS=+1.00000003E-20 N=+9.39543227E-03 
G7 105 100 101 108 1  
C3 100 108 +8.37500003E-11  
D8 108 100 DIOLIM  
D10 100 105 DIOLIM  
XNR11 100 105 108 107 XNR11_HA   
XST11 107 103 108 118 106 XST11_HA   
.ENDS
.SUBCKT XNR11_HA 103 100 108 106  
R7 108 106 +1.00000000E+12  
C7 108 106 1PF  
G56 108 106 POLY 3  106 108 100 108 103 108 0 0 0 +0.99999999E-01 0 -1  
.ENDS
.SUBCKT XST11_HA 103 107 108 118 101  
G26 108 102 POLY 3  103 108 102 108 118 0 -1.66666670E-02  +3.33333328E-01 0 0 
+0 0 0 0 +1.00000000E+01  
D11 108 102 STDS11  
D12 102 108 STDS11  
C6 102 108 +2.70000002E-08  
.MODEL STDS11 D IS=+0.99999999E-07 N=+3.38235585E-02 
G16 108 101 POLY 1  102 108 +5.00000014E-09 +1.00000000E-06  
R4 101 108 +1.00000000E+07  
D13 101 107 DIOLIM  
D10 108 101 DIOLIM  
.ENDS
.SUBCKT XTDL14_HA 102 103 108 118 106  
G6 101 108 POLY 1  102 108 +3.00000007E-02 -5.99999991E-01  
D11 101 108 TDLDR14  
D9 108 101 TDLDF14  
R12 101 108 100  
.MODEL TDLDR14 D IS=+6.66666688E-21 N=+6.26362151E-03 
.MODEL TDLDF14 D IS=+1.00000003E-20 N=+9.39543227E-03 
G7 103 100 101 108 1  
C3 100 108 +1.25000001E-08  
D8 108 100 DIOLIM  
D10 100 103 DIOLIM  
XST14 100 103 108 118 106 XST14_HA   
.ENDS
.SUBCKT XST14_HA 103 107 108 118 101  
G26 108 102 POLY 3  103 108 102 108 118 0 -1.66666670E-02  +3.33333328E-01 0 0 
+0 0 0 0 +1.00000000E+01  
D11 108 102 STDS14  
D12 102 108 STDS14  
C6 102 108 +2.70000002E-08  
.MODEL STDS14 D IS=+0.99999999E-07 N=+3.38235585E-02 
G16 108 101 POLY 1  102 108 +5.00000014E-09 +1.00000000E-06  
R4 101 108 +1.00000000E+07  
D13 101 107 DIOLIM  
D10 108 101 DIOLIM  
.ENDS
.SUBCKT XTDL15_HA 102 103 108 118 106  
G6 101 108 POLY 1  102 108 +2.36363642E-02 -4.72727266E-01  
D11 101 108 TDLDR15  
D9 108 101 TDLDF15  
R12 101 108 100  
.MODEL TDLDR15 D IS=+1.00000003E-20 N=+9.39543227E-03 
.MODEL TDLDF15 D IS=+8.46153873E-21 N=+7.94998115E-03 
G7 103 100 101 108 1  
C3 100 108 +1.37500001E-08  
D8 108 100 DIOLIM  
D10 100 103 DIOLIM  
XST15 100 103 108 118 106 XST15_HA   
.ENDS
.SUBCKT XST15_HA 103 107 108 118 101  
G26 108 102 POLY 3  103 108 102 108 118 0 -1.66666670E-02  +3.33333328E-01 0 0 
+0 0 0 0 +1.00000000E+01  
D11 108 102 STDS15  
D12 102 108 STDS15  
C6 102 108 +2.70000002E-08  
.MODEL STDS15 D IS=+0.99999999E-07 N=+3.38235585E-02 
G16 108 101 POLY 1  102 108 +5.00000014E-09 +1.00000000E-06  
R4 101 108 +1.00000000E+07  
D13 101 107 DIOLIM  
D10 108 101 DIOLIM  
.ENDS
.SUBCKT XTDL16_HA 102 103 108 118 106  
G6 101 108 POLY 1  102 108 +6.66666682E-02 -1.33333333E+00  
D11 101 108 TDLDR16  
D9 108 101 TDLDF16  
R12 101 108 100  
.MODEL TDLDR16 D IS=+3.00000010E-21 N=+2.81862968E-03 
.MODEL TDLDF16 D IS=+1.00000003E-20 N=+9.39543227E-03 
G7 103 100 101 108 1  
C3 100 108 +3.37500010E-09  
D8 108 100 DIOLIM  
D10 100 103 DIOLIM  
XST16 100 103 108 118 106 XST16_HA   
.ENDS
.SUBCKT XST16_HA 103 107 108 118 101  
G26 108 102 POLY 3  103 108 102 108 118 0 -1.66666670E-02  +3.33333328E-01 0 0 
+0 0 0 0 +1.00000000E+01  
D11 108 102 STDS16  
D12 102 108 STDS16  
C6 102 108 +2.70000002E-08  
.MODEL STDS16 D IS=+0.99999999E-07 N=+3.38235585E-02 
G16 108 101 POLY 1  102 108 +5.00000014E-09 +1.00000000E-06  
R4 101 108 +1.00000000E+07  
D13 101 107 DIOLIM  
D10 108 101 DIOLIM  
.ENDS
.SUBCKT XTDL17_HA 102 103 108 118 106  
G6 101 108 POLY 1  102 108 +2.77777784E-02 -5.55555547E-01  
D11 101 108 TDLDR17  
D9 108 101 TDLDF17  
R12 101 108 100  
.MODEL TDLDR17 D IS=+7.20000023E-21 N=+6.76471123E-03 
.MODEL TDLDF17 D IS=+1.00000003E-20 N=+9.39543227E-03 
G7 103 100 101 108 1  
C3 100 108 +4.50000013E-09  
D8 108 100 DIOLIM  
D10 100 103 DIOLIM  
XST17 100 103 108 118 106 XST17_HA   
.ENDS
.SUBCKT XST17_HA 103 107 108 118 101  
G26 108 102 POLY 3  103 108 102 108 118 0 -1.66666670E-02  +3.33333328E-01 0 0 
+0 0 0 0 +1.00000000E+01  
D11 108 102 STDS17  
D12 102 108 STDS17  
C6 102 108 +2.70000002E-08  
.MODEL STDS17 D IS=+0.99999999E-07 N=+3.38235585E-02 
G16 108 101 POLY 1  102 108 +5.00000014E-09 +1.00000000E-06  
R4 101 108 +1.00000000E+07  
D13 101 107 DIOLIM  
D10 108 101 DIOLIM  
.ENDS
.SUBCKT XSRR19_HA 107 100 104 106 101 103 108 123 118 105  
G62 102 108 POLY 3  105 123 107 100 118 0 -1.00000001E-08 0 0 0 0 0 0 0 0 0 0 
+0 0 0 +1.20000003E-04  
R9 102 108 +1.00000000E+06  
C6 108 102 +1.35000002E-14  
D12 102 108 DIOLIM  
D13 123 102 DIOLIM  
G68 105 108 POLY 3  102 123 104 106 101 103 -1.00000003E-09 0 0 0 0 0 0 0 0 0 
+0 0 0 0 +1.20000003E-05  
R8 105 108 +1.00000000E+07  
C7 105 108 +2.69999999E-15  
D10 123 105 DIOLIM  
D11 105 108 DIOLIM  
.ENDS
.SUBCKT XDR21_HA 109 143 141 140 144 142  
XTDO21 109 143 141 140 144 145 XTDO21_HA   
M10 146 145 147 147 PMOS  W=+3.17505007E-02 L=+9.00000002E-06  
+AS=+4.12756495E-07 PS=+6.35270014E-02 AD=+4.12756495E-07  PD=+6.35270014E-02 
+NRS=+1.41730055E-04 NRD=+1.41730055E-04  
R9 140 147 0.189  
R8 146 142 0.189  
M14 148 145 149 149 NMOS  W=+1.96160004E-02 L=+7.50000002E-06  
+AS=+2.55007997E-07 PS=+3.92580009E-02 AD=+2.55007997E-07  PD=+3.92580009E-02 
+NRS=+2.29404573E-04 NRD=+2.29404573E-04  
R6 149 141 0.286  
R7 142 148 0.286  
J2 141 140 142 PJF  
.MODEL NMOS NMOS LEVEL=3 VTO=+2.14474000E+00 GAMMA=+2.51500000E+00 
+PHI=+7.20820373E-01 IS=+2.57499999E-15 CGSO=+1.25300004E-09 
+CGDO=+1.25300004E-09 CGBO=+3.67350002E-08 RSH=+1.42000000E+01 
+PB=+7.11499989E-01 CJ=+1.31999994E-03 CJSW=+7.35700021E-09 MJ=+2.88899996E-01 
+MJSW=+3.29999995E-01 TOX=+0.99999999E-07 NSUB=+1.79364995E+16 
+NFS=+5.29179011E+11 LD=+1.37394000E-06 UO=+5.10677000E+02 VMAX=+2.35828000E+05 
+KF=+1.00000000E+00 AF=+1.00000000E+00 FC=+4.99999993E-01 DELTA=+3.67599995E-01 
+THETA=+2.77635006E-02 ETA=+8.94000020E-02 KAPPA=+1.27360000E+00 
+XJ=+1.50000000E-06 
.MODEL PMOS PMOS LEVEL=3 VTO=-1.26467000E+00 GAMMA=+5.18999992E-01 
+PHI=+6.09996102E-01 IS=+6.75699989E-16 CGSO=+1.36700004E-09 
+CGDO=+1.36700004E-09 CGBO=+3.10600002E-08 RSH=+1.56000000E+02 
+PB=+6.77799990E-01 CJ=+9.12800023E-04 CJSW=+6.40300018E-09 MJ=+4.99999993E-01 
+MJSW=+3.29999995E-01 TOX=+0.99999999E-07 NSUB=+2.07516003E+15 
+NSS=+1.00000000E+10 NFS=+1.00000000E+10 LD=+2.43769001E-06 UO=+2.39074000E+02 
+VMAX=+8.65691000E+04 AF=+1.00000000E+00 FC=+4.99999993E-01 
+DELTA=+0.99999995E-03 THETA=+6.29025014E-02 ETA=+7.84428988E-01 
+KAPPA=+8.92738987E-01 XJ=+2.50000001E-06 
.MODEL PJF PJF  VTO=-7.46000000E+00 BETA=+5.66400003E-08 
+LAMBDA=+3.28899984E-03 PB=+1.00000000E+00 FC=+4.99999993E-01 
+IS=+3.01999999E-15 AF=+1.00000000E+00 
.ENDS
.SUBCKT XTDO21_HA 102 103 108 150 118 106  
G6 101 108 POLY 1  102 108 +2.00000004E-02 -3.99999994E-01  
D11 101 108 TDODR21  
D9 108 101 TDODF21  
R12 101 108 100  
.MODEL TDODR21 D IS=+1.00000003E-20 N=+9.39543227E-03 
.MODEL TDODF21 D IS=+1.00000003E-20 N=+9.39543227E-03 
G7 103 100 101 108 1  
C3 100 108 +4.50000013E-09  
D8 108 100 DIOLIM  
D10 100 103 DIOLIM  
XSTO21 100 108 150 118 106 XSTO21_HA   
.ENDS
.SUBCKT XSTO21_HA 103 108 107 118 101  
G26 108 102 POLY 3  103 108 102 108 118 0 -1.66666670E-02  +3.33333328E-01 0 0 
+0 0 0 0 +1.00000000E+01  
D11 108 102 STODS21  
D12 102 108 STODS21  
C6 102 108 +2.70000002E-08  
.MODEL STODS21 D IS=+0.99999999E-07 N=+3.38235585E-02 
G16 108 101 POLY 2  107 108 102 108 0 +1.00000002E-02 0 0 +2.00000000E+00  
R4 101 108 +5.00000000E+01  
EVDD 151 108 107 108 1  
D13 101 151 DIOLIM  
D10 108 101 DIOLIM  
.ENDS
* hip4080 macromodel level 1
* (pin order) bhb hen dis vss out in+ in- hdel ldel ahb aho ahs alo als vcc vdd
*bls blo bhs bho
.SUBCKT HIP4080L1_HA 108 106 104 112 111 103 102 101 107 100 110 105 109 114 115 116 
+117 118 119 120  
C1 108 0 1PF  
C2 106 0 1PF  
C3 104 0 1PF  
C4 112 0 1PF  
C5 111 0 1PF  
C6 103 0 1PF  
C7 102 0 1PF  
C8 101 0 1PF  
C9 107 0 1PF  
C10 100 0 1PF  
C11 110 0 1PF  
C12 105 0 1PF  
C13 109 0 1PF  
C14 114 0 1PF  
C15 115 0 1PF  
C16 116 0 1PF  
C17 117 0 1PF  
C18 118 0 1PF  
C19 119 0 1PF  
C20 120 0 1PF  
VON 101 112 5.1  
HCHG1 121 0 POLY 1 VON 0 1  
RCHG1 121 0 1K  
VOF 107 112 5.1  
HCHG2 122 0 POLY 1 VOF 0 1  
RCHG2 122 0 1K  
FCONT 116 112 POLY 2 VON VOF 1.43M -2 -2  
X2 106 123 124 116 112 125 H80L1X1_HA   
X4 104 123 126 116 112 125 H80L1X2_HA   
EVDDINT 125 112 116 112 1  
IX1 112 123 +1.37600000E-04  
RX1 112 123 25K  
VX1 127 112 3.44  
DX1 127 123 DX1  
.MODEL DX1 D N=0.6 
X5 102 103 128 116 112 H80L1X5_HA   
CIN 128 116 +5.30000000E-13  
CCUP 128 112 0.07P  
COUT 112 116 0.2P  
MI3XP 111 128 116 116 PMOS W=+1.00000000E-06 L=+1.00000000E-06  
MI3XN 111 128 112 112 NMOS W=+1.00000000E-06 L=+1.00000000E-06  
.MODEL NMOS NMOS LEVEL=1 VTO=+1.0E+0 KP=1.15E-3 GAMMA=+1.3E+0 PHI=7.2E-1 
+RS=+408
.MODEL PMOS PMOS LEVEL=1 VTO=-1.80000000E+00 KP=4.15E-4 LAMBDA=7.0E-2 
+GAMMA=+5.7E-1 RS=+652
EVDD 129 112 116 112 +1.00000000E-02  
EVCC 130 112 115 112 1  
X14 126 112 129 112 131 H80L1X14_HA   
X6 126 129 112 132 H80L1X6_HA   
X7 131 124 132 116 128 116 112 115 108 120 119 118 117 133 129 130 134 121 122
+H80L1X7_HA
X8 131 124 132 128 112 116 112 115 100 110 105 109 114 133 129 130 134 121 122
+H80L1X7_HA
V1 133 0 PULSE 0 1 625N 5N 5N 5N 1.25U  
RV1 133 0 1K  
VCON 134 0 PULSE 0 1 0 1N  
RCON 134 0 1K  
.ENDS
.SUBCKT H80L1X7_HA 108 106 104 112 117 111 103 102 101 107 100 110 105 118 119 
+120 134 124 135  
X9 108 111 106 104 112 117 119 103 109 115 134 124 135 H80L1X9_HA   
X10 118 101 100 H80L1X10_HA   
GS 116 0 POLY 4  109 103 119 103 101 100 116 0 0 0 0 0 0 0 0 -1.00000000E-02 0 
+0 0 1  
CS 0 116 5PF  
RS 0 116 +1.00000000E+12  
E12 123 100 101 100 1  
X12 116 0 123 100 107 101 100 H80L1X12_HA   
X13 115 103 120 103 110 102 105 H80L1X12_HA   
RPUL 110 105 100K  
.ENDS
.SUBCKT H80L1X1_HA 106 104 112 111 103 107  
GCUR 111 101 POLY 1  111 112 +2.24000000E-04 +3.33333333E-06  
DCUR 101 111 DIOLIM  
CCUR1 101 111 +1.12000000E-12  
CCUR2 101 104 +2.00000000E-14  
CCUR3 104 106 +1.40000000E-13  
GINV 103 112 POLY 2  111 103 101 103 0 +4.90000000E-04 -1.00000000E-03  
RINV 103 112 +1.00000000E+04  
CINV 103 112 +4.40000000E-13  
DHIGH 112 107 DIOLIM  
DLOW 103 112 DIOLIM  
.MODEL DIOLIM D N=0.1 
M1 101 104 106 106 NMOS0 W=+2.00000000E-06 L=+1.00000000E-06  
.MODEL NMOS0 NMOS LEVEL=1 VTO=+1.09 KP=8.5E-4 LAMBDA=3.0E-2 
.ENDS
.SUBCKT H80L1X2_HA 106 104 112 111 103 107  
GCUR 111 101 POLY 1  111 112 +1.12000000E-04 +1.66666667E-06  
DCUR 101 111 DIOLIM  
CCUR1 101 111 +5.60000000E-13  
CCUR2 101 104 +1.00000000E-14  
CCUR3 104 106 +7.00000000E-14  
GINV 103 112 POLY 2  111 103 101 103 0 +4.90000000E-04 -1.00000000E-03  
RINV 103 112 +1.00000000E+04  
CINV 103 112 +4.40000000E-13  
DHIGH 112 107 DIOLIM  
DLOW 103 112 DIOLIM  
.MODEL DIOLIM D N=0.1 
M1 101 104 106 106 NMOS0 W=+1.00000000E-06 L=+1.00000000E-06  
.MODEL NMOS0 NMOS LEVEL=1 VTO=+1.09 KP=8.5E-4 LAMBDA=3.0E-2 
.ENDS
.SUBCKT H80L1X5_HA 100 120 130 136 137  
 .MODEL DP D  IS=+1.47281000E-11  N=+1.17106775E-02 
  .MODEL DN D  IS=+1.29265215E-11  N=+1.17106775E-02 
VOS 100 111 +1.69316000E-04  
DP 111 108 DP  
DN 120 108 DN  
IOS 108 0 +1.47281000E-06  
F1 137 106 POLY 1  VOS   -8.04792721E-02  +1.02602587E+05  
C1 106 137 +2.72512922E-11  
ECC 138 137 136 137 1X  
DXH 106 138 DXH  
DXL 137 106 DXL  
RX 106 104 +5.47686900E+03  
RD1 104 137 +6.78311300E+04  
RD2 104 138 +6.78311300E+04  
DH 104 103 DH  
DL 102 104 DL  
RO 104 130 +6.12535000E+02  
  .MODEL DXH D  IS=+4.91091513E-12  N=+1.99378707E+02 
  .MODEL DXL D  IS=+5.95463879E-12  N=+1.93887905E+02 
  .MODEL DH D  IS=+2.15256924E-12  N=+6.14530371E+00 
  .MODEL DL D  IS=+2.09328843E-12  N=+6.09167023E+00 
EH 103 138 POLY 1  104 130 -3.63419175E+00     -2.71546932E-01  0.  
+-9.14825438E-02  
EL 102 137 POLY 1  104 130 +3.60229807E+00     +0.00000000E+00  0.  
+-4.81763118E-02  
.ENDS
.SUBCKT H80L1X6_HA 106 104 103 111  
G6 103 108 POLY 2  106 103 104 103 0 +1.00000000E-01 -5  
D11 108 103 DR  
D9 103 108 DF  
R12 108 103 1  
.MODEL DR D IS=1E-25 N=+1.76631343E-03 
.MODEL DF D IS=1E-25 N=+8.22249354E-02 
G7 104 112 108 103 1  
C3 112 103 +1.11111111E-08  
D8 103 112 DIOLIM  
D10 112 104 DIOLIM  
GINV 103 102 POLY 2  112 103 104 103 0 -6.00000000E-03 +3.69000000E-03  
RINV 103 102 +2.00000000E+03  
DHIGH 102 104 DIOLIM  
DLOW 103 102 DIOLIM  
G62 103 111 POLY 3  104 103 102 103 106 103 0 -1.25000000E-03 +1.00000000E-03 
++1.00000000E-05  
R62 103 111 +2.00000000E+03  
C6 111 103 +2.25000000E-12  
DHIGH2 111 104 DIOLIM  
DLOW2 103 111 DIOLIM  
.MODEL DIOLIM D N=+1.20000000E-04 
.ENDS
.SUBCKT H80L1X9_HA 108 106 116 104 112 115 111 103 100 107 134 117 118  
G4 103 107 POLY 5  108 103 104 103 112 115 111 103 114 103 0 0 0 0 
++7.50000000E-04 +1.00000000E-03 0 -8.33333333E-03 -8.33333333E-05 0 0 0 0 0 0 
+0 0 0 0 0 0 0 0 0 0 0 0 +6.94444444E-04  
R4 103 107 +2.00000000E+03  
C4 103 107 +6.75000000E-12  
DH4 107 111 DIOLIM  
DL4 103 107 DIOLIM  
G5 103 100 POLY 8  100 103 134 0 111 103 108 103 106 116 104 103 112 115 105 
+103 0 0 0 +2.50000000E-03 -2.00000000E-03 -2.00000000E-05 +2.00000000E-03 
++2.00000000E-05 +1.00000000E-03 0 +1.00000000E-03  
R5 103 100 +2.00000000E+03  
C5 103 100 +6.75000000E-12  
DH5 100 111 DIOLIM  
DL5 103 100 DIOLIM  
XA 108 106 116 104 112 115 105 111 103 114 118 H80L1X16_HA   
XB 111 107 111 103 105 117 H80L1X15_HA   
.MODEL DIOLIM D N=+1.20000000E-03 
.ENDS
.SUBCKT H80L1X15_HA 106 107 104 103 102 110  
G6 103 108 POLY 2  106 107 104 103 0 10 -5  
D11 108 103 DRX15  
D9 101 108 DFX15  
E9 103 101 POLY 1  110 0 0 -2.47500000E+02  
R12 108 103 1  
.MODEL DRX15 D IS=1E-25 N=+8.22249354E-02 
.MODEL DFX15 D IS=1E-25 N=+5.13905846E-05 
G7 104 112 108 103 1  
C3 112 103 +1.00000000E-08  
D8 103 112 DIOLIM  
D10 112 104 DIOLIM  
GINV 103 102 POLY 2  104 103 112 103 0 -2.75000000E-03 +6.00000000E-03  
RINV 103 102 +2.00000000E+03  
CINV 103 102 +9.75000000E-12  
DHIGH 102 104 DIOLIM  
DLOW 103 102 DIOLIM  
.MODEL DIOLIM D N=+1.20000000E-04 
.ENDS
.SUBCKT H80L1X16_HA 110 105 117 109 114 115 116 104 103 102 118  
G6 103 108 POLY 6  104 103 110 103 105 117 109 103 114 115 116 103 0 -15 10 
++1.00000000E-01 -10 -1.00000000E-01 -10  
D11 108 103 DRX16  
D9 101 108 DFX16  
E9 103 101 POLY(1)  118 0 0 -2.47500000E+02  
R12 108 103 1  
.MODEL DRX16 D IS=1E-25 N=+8.22249354E-02 
.MODEL DFX16 D IS=1E-25 N=+5.13905846E-05 
G7 104 112 108 103 1  
C3 112 103 +1.00000000E-08  
D8 103 112 DIOLIM  
D10 112 104 DIOLIM  
GINV 103 102 POLY 2  104 103 112 103 0 -2.75000000E-03 +6.00000000E-03  
RINV 103 102 +2.00000000E+03  
CINV 103 102 +9.75000000E-12  
DHIGH 102 104 DIOLIM  
DLOW 103 102 DIOLIM  
.MODEL DIOLIM D N=+1.20000000E-04 
.ENDS
.SUBCKT H80L1X10_HA 108 106 104  
GCHG 112 106 POLY 2  108 0 106 104 0 +2.40000000E-03 0 0 -1.00000000E-04  
DIOH 106 112 DIOH  
DIOL 112 106 DIOL  
RPHA 104 112 1K  
.MODEL DIOH D IS=1.0E-30 N=8.12 RS=700 
.MODEL DIOL D IS=0.9E-15 N=3.15 RS=100 BV=40 
.ENDS
.SUBCKT H80L1X12_HA 108 103 106 104 112 102 111  
GINV 104 139 POLY 2  106 104 108 103 0 +4.16666667E-04 -6.66666667E-02  
RINV 104 139 +6.00000000E+03  
CINV 104 139 +1.41666667E-12  
DHIGH 139 106 DIOLIM  
DLOW 104 139 DIOLIM  
GINV2 104 140 POLY 2  106 104 139 104 0 +2.82500000E-03 -5.00000000E-03  
RINV2 104 140 +8.00000000E+02  
CINV2 104 140 +6.25000000E-12  
DHIGH2 140 106 DIOLIM  
DLOW2 104 140 DIOLIM  
.MODEL DIOLIM D N=+1.20000000E-01 
R1 113 112 +2.00000000E+02  
M2 112 140 111 111 NMOS1 W=+1.00000000E-06 L=+1.00000000E-06  
M6 113 140 111 111 NMOS2 W=+1.00000000E-06 L=+1.00000000E-06  
M7 112 140 141 111 NMOS3 W=+1.00000000E-06 L=+1.00000000E-06  
M8 141 139 111 111 NMOS1 W=+1.00000000E-06 L=+1.00000000E-06  
M12 113 140 102 102 PMOS1 W=+1.00000000E-06 L=+1.00000000E-06  
Q13 102 113 112 0 NPN +1.60E+02 OFF  
Q14 112 141 111 0 NPN +1.00E+02 OFF  
.MODEL NMOS1 NMOS LEVEL=1 VTO=+1.0E+0 KP=5.2E-3 GAMMA=+1.3E+0 PHI=7.2E-1 
+RS=+91
.MODEL NMOS2 NMOS LEVEL=1 VTO=+1.0E+0 KP=1.3E-2 GAMMA=+1.3E+0 PHI=7.2E-1 
+RS=+38
.MODEL NMOS3 NMOS LEVEL=1 VTO=+1.0E+0 KP=2.1E-2 GAMMA=+1.3E+0 PHI=7.2E-1 
+RS=+23
.MODEL PMOS1 PMOS LEVEL=1 VTO=-1.80000000E+00 KP=6.8E-3 LAMBDA=7.0E-2 
+GAMMA=+5.7E-1 RS=+40
.MODEL NPN NPN  IS=7.77E-17 BF=+1.03E+02 ISE=+2.75835000E-20 IK=+9.88E-03 
+BR=+7.49E+00 C4=1.52E+00 IKR=+2.40E-03 VA=+7.30E+01 VB=+4.52E+00 RC=2.60E+02 
+TF=+5.67E-11 XTF=+1.40E+00 VTF=+1.52E+01 ITF=+9.95E-03 CJE=+1.57E-13 
+PE=+7.46E-01 ME=+5.00E-01 FC=+9.50E-01 CJC=+2.32E-13 PC=+6.76E-01 MC=+4.81E-01 
.ENDS
.SUBCKT H80L1X14_HA 106 107 104 103 102  
G6 103 108 POLY 2  106 107 104 103 0 +8.33333333E-01 -5  
D11 108 103 DRX14  
D9 103 108 DFX14  
R12 108 103 1  
.MODEL DRX14 D IS=1E-25 N=+8.22249354E-02 
.MODEL DFX14 D IS=1E-25 N=+8.22249354E-02 
G7 104 112 108 103 1  
C3 112 103 +4.00000000E-09  
D8 103 112 DIOLIM  
D10 112 104 DIOLIM  
GINV 103 102 POLY 2  104 103 112 103 0 -2.75000000E-03 +6.00000000E-03  
RINV 103 102 +2.00000000E+03  
CINV 103 102 +3.25000000E-12  
DHIGH 102 104 DIOLIM  
DLOW 103 102 DIOLIM  
.MODEL DIOLIM D N=+1.20000000E-04 
.ENDS


* hip4080 macromodel level 2
* (pin order) bhb hen dis vss out in+ in- hdel ldel ahb aho ahs alo als vcc vdd
*bls blo bhs bho
.SUBCKT HIP4080L2_HA 114 106 104 111 110 103 102 101 107 100 109 105 116 117 118 119 
+120 121 122 113  
C1 114 0 1PF  
C2 106 0 1PF  
C3 104 0 1PF  
C4 111 0 1PF  
C5 110 0 1PF  
C6 103 0 1PF  
C7 102 0 1PF  
C8 101 0 1PF  
C9 107 0 1PF  
C10 100 0 1PF  
C11 109 0 1PF  
C12 105 0 1PF  
C13 116 0 1PF  
C14 117 0 1PF  
C15 118 0 1PF  
C16 119 0 1PF  
C17 120 0 1PF  
C18 121 0 1PF  
C19 122 0 1PF  
C20 113 0 1PF  
VON 101 111 5.1  
HCHG1 123 0 POLY 1 VON 0 1  
RCHG1 123 0 1K  
VOF 107 111 5.1  
HCHG2 124 0 POLY 1 VOF 0 1  
RCHG2 124 0 1K  
FCONT 119 111 POLY 2 VON VOF 1.43M -2 -2  
X2 106 112 125 119 111 126 H80L2X1_HA   
X4 104 112 127 119 111 126 H80L2X2_HA   
EVDDINT 126 111 119 111 1  
IX1 111 112 +1.37600000E-04  
RX1 111 112 25K  
VX1 128 111 3.44  
DX1 128 112 DX1  
.MODEL DX1 D N=0.6 
X5 102 103 129 119 111 H80L2X5_HA   
CIN 129 119 +5.30000000E-13  
CCUP 129 111 0.07P  
COUT 111 119 0.2P  
MI3XP 110 129 119 119 PMOS W=+1.00000000E-06 L=+1.00000000E-06  
MI3XN 110 129 111 111 NMOS W=+1.00000000E-06 L=+1.00000000E-06  
.MODEL NMOS NMOS LEVEL=1 VTO=+1.0E+0 KP=1.15E-3 GAMMA=+1.3E+0 PHI=7.2E-1 
+RS=+408
.MODEL PMOS PMOS LEVEL=1 VTO=-1.80000000E+00 KP=4.15E-4 LAMBDA=7.0E-2 
+GAMMA=+5.7E-1 RS=+652
EVDD 130 111 119 111 +1.00000000E-02  
EVCC 131 111 118 111 1  
X14 127 111 130 111 132 H80L2X14_HA   
X6 127 130 111 133 H80L2X6_HA   
X7 132 125 133 119 129 119 111 118 114 113 122 121 120 134 130 131 123 124 
+H80L2X7_HA
X8 132 125 133 129 111 119 111 118 100 109 105 116 117 134 130 131 123 124 
+H80L2X7_HA
V1 134 111 PULSE 0 1 625N 5N 5N 5N 1.25U  
RV1 134 111 10K  
.ENDS
.SUBCKT H80L2X7_HA 114 106 104 111 120 110 103 102 101 107 100 109 105 121 122 
+113 125 135  
X9 114 106 104 111 120 122 103 116 117 118 125 135 H80L2X9_HA   
X10 121 101 100 H80L2X10_HA   
E11 108 100 101 100 +1.00000000E-02  
X11 116 117 122 103 108 100 119 101 H80L2X11_HA   
E12 112 100 101 100 1  
X12 119 100 112 100 107 101 100 H80L2X12_HA   
X13 118 103 113 103 109 102 105 H80L2X12_HA   
RPUL 109 105 100K  
.ENDS
.SUBCKT H80L2X1_HA 106 104 111 110 103 107  
GCUR 110 101 POLY 1  110 111 +2.24000000E-04 +4.00000000E-06  
DCUR 101 110 DIOLIM  
CCUR1 101 110 +1.12000000E-12  
CCUR2 101 104 +2.00000000E-14  
CCUR3 104 106 +1.40000000E-13  
GINV 103 111 POLY 2  110 103 101 103 0 0 0 +4.08333333E-05 -8.33333333E-05  
RINV 103 111 +1.00000000E+04  
CINV 103 111 +4.40000000E-13  
DHIGH 111 107 DIOLIM  
DLOW 103 111 DIOLIM  
.MODEL DIOLIM D N=0.1 
M1 101 104 106 106 NMOS0 W=+2.00000000E-06 L=+1.00000000E-06  
.MODEL NMOS0 NMOS LEVEL=1 VTO=+1.09 KP=8.5E-4 LAMBDA=3.0E-2 
.ENDS
.SUBCKT H80L2X2_HA 106 104 111 110 103 107  
GCUR 110 101 POLY 1  110 111 +1.12000000E-04 +2.00000000E-06  
DCUR 101 110 DIOLIM  
CCUR1 101 110 +5.60000000E-13  
CCUR2 101 104 +1.00000000E-14  
CCUR3 104 106 +7.00000000E-14  
GINV 103 111 POLY 2  110 103 101 103 0 0 0 +4.08333333E-05 -8.33333333E-05  
RINV 103 111 +1.00000000E+04  
CINV 103 111 +4.40000000E-13  
DHIGH 111 107 DIOLIM  
DLOW 103 111 DIOLIM  
.MODEL DIOLIM D N=0.1 
M1 101 104 106 106 NMOS0 W=+1.00000000E-06 L=+1.00000000E-06  
.MODEL NMOS0 NMOS LEVEL=1 VTO=+1.09 KP=8.5E-4 LAMBDA=3.0E-2 
.ENDS
.SUBCKT H80L2X5_HA 100 113 131 136 137  
 .MODEL DP D  IS=+1.47281000E-11  N=+1.17106775E-02 
  .MODEL DN D  IS=+1.29265215E-11  N=+1.17106775E-02 
VOS 100 110 +1.69316000E-04  
DP 110 114 DP  
DN 113 114 DN  
IOS 114 0 +1.47281000E-06  
CIN 100 113 +5.58077600E-12  
VP 136 111 +6.00000000E+00  
DP1 111 101 DPS  
DP2 101 137 DPS  
GP 101 111 104 131 +1.63255977E-03  
RP 101 111 1MEG  
GPS 136 137 POLY 2  136 104 104 137 +1.64857601E-03    -1.51550650E-05  
++1.51126694E-05  0.0  +5.88828435E-05  
F1 111 106 POLY 1  VOS  -8.04792721E-02  +1.02602587E+05  
C1 111 106 +2.72512922E-11  
DXH 106 111 DXH  
DXL 111 106 DXL  
RX 106 104 +5.47686900E+03  
RD 111 104 +3.39155650E+04  
DH 104 103 DH  
DL 102 104 DL  
RO 104 131 +6.12535000E+02  
  .MODEL DPS D  IS=1E-20  N=+7.24790524E+00 
  .MODEL DXH D  IS=+4.91091513E-12  N=+1.99378707E+02 
  .MODEL DXL D  IS=+5.95463879E-12  N=+1.93887905E+02 
  .MODEL DH D  IS=+2.15256924E-12  N=+6.14530371E+00 
  .MODEL DL D  IS=+2.09328843E-12  N=+6.09167023E+00 
EH 103 136 POLY 1  104 131 -3.63419175E+00     -2.71546932E-01  0.  
+-9.14825438E-02  
EL 102 136 POLY 2  104 131 137 136 +3.60229807E+00      +0.00000000E+00  1. 0. 
+0. 0.  -4.81763118E-02  
.ENDS
.SUBCKT H80L2X6_HA 106 104 103 110  
G6 103 114 POLY 2  106 103 104 103 0 +1.00000000E-01 -5  
D11 114 103 DRX6  
D9 103 114 DFX6  
R12 114 103 1  