.SUBCKT RFD8P06LE_HA 2 1 3 ; REV 7/29/96
*Term. Conn. **** D G S
* Spice circuit model file for RFD8P06LE
*************************************************************************
*   For further discussion of this PSPICE PowerFET macromodel consult   *
*    A New PSPICE Sub-circuit for the Power MOSFET Featuring Global     *
*     Temperature Options by William J. Hepp and C. Frank Wheatley      *
*NOM TEMP=25 deg C                                                      *
*************************************************************************
CA 12 8 1.50e-9
CB 15 14 1.50e-9
CIN 6 8 6.30e-10
DBODY 5 7 DBDMOD
DBREAK 7 11 DBKMOD
DESD1 91 9 DESD1MOD
DESD2 91 7 DESD2MOD
DPLCAP 10 6 DPLCAPMOD
EBREAK 5 11 17 18 -67.9
EDS 14 8 5 8 1
EGS 13 8 6 8 1
ESG 5 10 8 6 1
EVTHRES 21 6 19 8 1
EVTEMP 6 20 18 22 1
IT 8 17 1
LDRAIN 2 5 1e-10
LGATE 1 9 2.92e-9
LSOURCE 3 7 2.92e-9
MSTRONG 16 6 8 8 MstrongMOD
MMED 16 6 8 8 MmedMOD
MWEAK 16 21 8 8 MweakMOD
RBREAK 17 18 RBKMOD 1
RDRAIN 50 16 RDSMOD 95e-3
RGATE 9 20 2.89
RIN 6 8 1e9
RSCL1 5 51 RSCLMOD 1e-6
RSCL2 5 50 1e3
RSOURCE 8 7 RSourceMOD 97e-3
RVTHRES 22 8 RVTHRESMOD 1
RVTEMP 18 19 RVTEMPMOD 1
S1A 6 12 13 8 S1AMOD
S1B 13 12 13 8 S1BMOD
S2A 6 15 14 13 S2AMOD
S2B 13 15 14 13 S2BMOD
VBAT 22 19 DC 1
ESCL 51 50 VALUE={(V(5,51)/ABS(V(5,51)))*(PWR(V(5,51)*1e6/26,7))}
.MODEL DBDMOD D (IS=2.5e-12 RS=4e-2 IKF=0.01 N=0.97 TIKF=0.012 TRS1=0.8e-4 TRS2=-5e-6
+CJO=5.25e-10 VJ=0.75 M=0.41 TT=7.50e-8)
.MODEL DBKMOD D (IKF=5 N=0.75 RS=0.245 TRS1=1e-3 TRS2=1.6e-4)
.MODEL DESD1MOD D (BV=16.4 TBV1=-1.25e-3 TBV2=5.79e-7 RS=36 NBV=50 IBV=7e-6)
.MODEL DESD2MOD D (BV=16.2 TBV1=-8.3e-4 TBV2=8.9e-7 NBV=50 IBV=7e-6)
.MODEL DPLCAPMOD D (CJO=4.25e-10 IS=1e-30 N=10 VJ=0.499 M=0.561)
.MODEL MSTRONGMOD PMOS (VTO=-1.91 KP=11.55 IS=1e-30 N=10 TOX=1 L=1u W=1u)
.MODEL MMEDMOD PMOS (VTO=-1.51 KP=0.95 IS=1e-30 N=10 TOX=1 L=1u W=1u)
.MODEL MWEAKMOD PMOS (VTO=-1.18 KP=0.03 IS=1e-30 N=10 TOX=1 L=1u W=1u)
.MODEL RBKMOD RES (TC1=1.045e-3 TC2=-3.5e-7)
.MODEL RDSMOD RES (TC1=0.92e-2 TC2=1.55e-5)
.MODEL RSOURCEMOD RES (TC1=2e-3 TC2=0.5e-6)
.MODEL RSCLMOD RES (TC1=2e-3 TC2=0)
.MODEL RVTHRESMOD RES (TC1=-2.5e-3 TC2=0)
.MODEL RVTEMPMOD RES (TC1=-1.55e-3 TC2=7.5e-6)
.MODEL S1AMOD VSWITCH (RON=1e-5 ROFF=0.1 VON=5.25 VOFF=1.75)
.MODEL S1BMOD VSWITCH (RON=1e-5 ROFF=0.1 VON=1.75 VOFF=5.25)
.MODEL S2AMOD VSWITCH (RON=1e-5 ROFF=0.1 VON=0.5 VOFF=-0.5)
.MODEL S2BMOD VSWITCH (RON=1e-5 ROFF=0.1 VON=-0.5 VOFF=0.5)
.ENDS

*The following is a list of Harris Power Mosfet PSPICE Compatible models
*contained in this library file. In the case of a surface mount package variant
*, designated by a suffix of "SM" or a prefix of "IRFR", use the base part
*number for the subcircuit call function.
*See the README.TXT file on the disk for license information.
*
* File revised on 9-20-1996
*
*IRFU9110        IRFU9120         IRFU9220         MCTA75P60E1      MCTV75P60E1
*RF1K49086       RF1K49088        RF1K49090        RF1K49092N       RF1K49092P
*RF1K49093       RF1K49156        RF1K49157        RF1S23N06LE      RF1S30N06LE
*RF1S30P05       RF1S30P06        RF1S40N10LE      RF1S45N03L       RF1S45N06
*RF1S45N06LE     RF1S50N06        RF1S50N06LE      RF1S60P03        RF1S70N03
*RF1S70N06       RFA100N05E       RFD10P03L        RFD14N05         RFD14N05L
*RFD14N06        RFD14N06L        RFD15P05         RFD15P06         RFD16N03L
*RFD16N05        RFD16N05L        RFD16N06         RFD16N06LE       RFD3055
*RFD3055LE       RFD3N08L         RFD7N10LE        RFD8P06E         RFF60P06
*RFF70N06        RFG30P05         RFG30P06         RFG40N10LE       RFG45N06
*RFG45N06LE      RFG50N06         RFG50N06LE       RFG60P03         RFG60P05E
*RFG60P06E       RFG70N06         RFG75N05E        RFH75N05E        RFM15N06
*RFP10P03L       RFP14N05         RFP14N05L        RFP14N06         RFP14N06L
*RFP15N06        RFP15P05         RFP15P06         RFP23N06LE       RFP25N05
*RFP25N06        RFP3055          RFP3055LE        RFP30N06LE       RFP30P05
*RFP30P06        RFP40N10LE       RFP45N03L        RFP45N06         RFP45N06LE
*RFP50N06        RFP50N06LE       RFP60P03         RFP70N03         RFP70N06
*RFP7N10LE       RFP8P06E         RLD03N06CLE      RLP03N06CLE      RLP1N08LE
*RFD15N06LE,SM   RF1K49211        RF1K49154
.SUBCKT RF1K49088_HA 2 1 3 ; REV 7/21/94
*Term. Conn. **** D G S
*Spice circuit model file for the RF1K49088
*For a detail specification see datasheet FN3952
*************************************************************************
*   For further discussion of this PSPICE PowerFET macromodel consult   *
*    A New PSPICE Sub-circuit for the Power MOSFET Featuring Global     *
*     Temperature Options by William J. Hepp and C. Frank Wheatley      *
*NOM TEMP=25 deg C                                                      *
*************************************************************************
Ca 12 8 1.081e-9
Cb 15 14 1.13e-9
Cin 6 8 0.673e-9
Dbody 7 5 DBDMOD
Dbreak 5 11 DBKMOD
Dplcap 10 5 DPLCAPMOD
Ebreak 11 7 17 18 34.1
Eds 14 8 5 8 1
Egs 13 8 6 8 1
Esg 6 10 6 8 1
Evto 20 6 18 8 1
It 8 17 1
Ldrain 2 5 1.0e-9
Lgate 1 9 1.233e-9
Lsource 3 7 0.452e-9
Mos1 16 6 8 8 MOSMOD M=0.99
Mos2 16 21 8 8 MOSMOD M=0.01
Rbreak 17 18 RBKMOD 1
Rdrain 5 16 RDSMOD 1.408e-3
Rgate 9 20 3.33
Rin 6 8 1e9
Rsource 8 7 RDSMOD 20.0e-3
Rvto 18 19 RVTOMOD 1
S1a 6 12 13 8 S1AMOD
S1b 13 12 13 8 S1BMOD
S2a 6 15 14 13 S2AMOD
S2b 13 15 14 13 S2BMOD
Vbat 8 19 DC 1
Vto 21 6 0.211
.MODEL DBDMOD D (IS=2.82e-13 RS=1.72e-2 TRS1=1.58e-3 TRS2=1.23e-7
+CJO=9.19e-10 TT=2.03e-8)
.MODEL DBKMOD D (RS=2.65e-1 TRS1=5.00e-3 TRS2=7.09e-5)
.MODEL DPLCAPMOD D (CJO=0.42e-9 IS=1e-30 N=10)
.MODEL MOSMOD NMOS (VTO=2.010 KP=15.01 IS=1e-30 N=10 TOX=1 L=1u W=1u)
.MODEL RBKMOD RES (TC1=1.02e-3 TC2=-1.98e-6)
.MODEL RDSMOD RES (TC1=3.50e-3 TC2=3.70-6)
.MODEL RVTOMOD RES (TC1=-2.53e-3 TC2=8.13e-7)
.MODEL S1AMOD VSWITCH(RON=1e-5 ROFF=0.1 VON=-6.20 VOFF=-3.80)
.MODEL S1BMOD VSWITCH(RON=1e-5 ROFF=0.1 VON=-3.80 VOFF=-6.20)
.MODEL S2AMOD VSWITCH(RON=1e-5 ROFF=0.1 VON=-1.40 VOFF=4.10)
.MODEL S2BMOD VSWITCH(RON=1e-5 ROFF=0.1 VON=4.10 VOFF=-1.40)
.ENDS
.SUBCKT RF1K49090_HA 2 1 3 ; REV 8/29/94
*Term. Conn. **** D G S
*Spice circuit model file for the RF1K49090
*For a detail specification see datasheet FN3985
*************************************************************************
*   For further discussion of this PSPICE PowerFET macromodel consult   *
*    A New PSPICE Sub-circuit for the Power MOSFET Featuring Global     *
*     Temperature Options by William J. Hepp and C. Frank Wheatley      *
*NOM TEMP=25 deg C                                                      *
*************************************************************************
Ca 12 8 9.77e-10
Cb 15 14 9.19e-10
Cin 6 8 7.81e-10
Dbody 7 5 DBDMOD
Dbreak 5 11 DBKMOD
Dplcap 10 5 DPLCAPMOD
Ebreak 11 7 17 18 14.89
Eds 14 8 5 8 1
Egs 13 8 6 8 1
Esg 6 10 6 8 1
Evto 20 6 18 8 1
It 8 17 1
Ldrain 2 5 1.0e-9
Lgate 1 9 1.233e-9
Lsource 3 7 0.452e-9
Mos1 16 6 8 8 MOSMOD M=0.99
Mos2 16 21 8 8 MOSMOD M=0.01
Rbreak 17 18 RBKMOD 1
Rdrain 5 16 RDSMOD 4.910e-3
Rgate 9 20 2.74
Rin 6 8 1e9
Rsource 8 7 RDSMOD 5.00e-3
Rvto 18 19 RVTOMOD 1
S1a 6 12 13 8 S1AMOD
S1b 13 12 13 8 S1BMOD
S2a 6 15 14 13 S2AMOD
S2b 13 15 14 13 S2BMOD
Vbat 8 19 DC 1
Vto 21 6 0.3215
.MODEL DBDMOD D (IS=7.00e-13 RS=2.15e-2 TRS1=0.50e-3 TRS2=3.68e-6
+CJO=1.28e-9 TT=1.80e-8)
.MODEL DBKMOD D (RS=1.28e-1 TRS1=1.69e-3 TRS2=-2.0e-6)
.MODEL DPLCAPMOD D (CJO=0.84e-9 IS=1e-30 N=10)
.MODEL MOSMOD NMOS (VTO=1.630 KP=11.55 IS=1e-30 N=10 TOX=1 L=1u W=1u)
.MODEL RBKMOD RES (TC1=9.15e-4 TC2=3.13e-7)
.MODEL RDSMOD RES (TC1=7.00e-4 TC2=5.00-6)
.MODEL RVTOMOD RES (TC1=-2.155e-3 TC2=-2.70e-6)
.MODEL S1AMOD VSWITCH(RON=1e-5 ROFF=0.1 VON=-6.05 VOFF=-4.05)
.MODEL S1BMOD VSWITCH(RON=1e-5 ROFF=0.1 VON=-4.05 VOFF=-6.05)
.MODEL S2AMOD VSWITCH(RON=1e-5 ROFF=0.1 VON=-0.72 VOFF=4.28)
.MODEL S2BMOD VSWITCH(RON=1e-5 ROFF=0.1 VON=4.28 VOFF=-0.72)
.ENDS
.SUBCKT RF1K49092N_HA 2 1 3 ; REV 10/24/94
*Term. Conn. ****  D G S
*Spice circuit model file for the N-Channel MOSFET in the RF1K49092
*For a detail specification see datasheet FN3968
*************************************************************************
*   For further discussion of this PSPICE PowerFET macromodel consult   *
*    A New PSPICE Sub-circuit for the Power MOSFET Featuring Global     *
*     Temperature Options by William J. Hepp and C. Frank Wheatley      *
*NOM TEMP=25 deg C                                                      *
*************************************************************************
Ca 12 8 9.77e-10
Cb 15 14 9.19e-10
Cin 6 8 7.81e-10
Dbody 5 7 DBDMOD
Dbreak 7 11 DBKMOD
Dplcap 10 6 DPLCAPMOD
Ebreak 5 11 17 18 14.89
Eds 14 8 5 8 1
Egs 13 8 6 8 1
Esg 5 10 6 8 1
Evto 20 6 8 18 1
It 8 17 1
Ldrain 2 5 1.0e-9
Lgate 1 9 1.233e-9
Lsource 3 7 0.452e-9
Mos1 16 6 8 8 MOSMOD M=0.99
Mos2 16 21 8 8 MOSMOD M=0.01
Rbreak 17 18 RBKMOD 1
Rdrain 5 16 RDSMOD 4.910e-3
Rgate 9 20 2.74
Rin 6 8 1e9
Rsource 8 7 RDSMOD 5.00e-3
Rvto 18 19 RVTOMOD 1
S1a 6 12 13 8 S1AMOD
S1b 13 12 13 8 S1BMOD
S2a 6 15 14 13 S2AMOD
S2b 13 15 14 13 S2BMOD
Vbat 8 19 DC 1
Vto 21 6 0.3215
.MODEL DBDMOD D (IS=7.00e-13 RS=2.15e-2 TRS1=0.50e-3 TRS2=3.68e-6
+CJO=1.28e-9 TT=1.80e-8)
.MODEL DBKMOD D (RS=1.28e-1 TRS1=1.69e-3 TRS2=-2.0e-6)
.MODEL DPLCAPMOD D (CJO=0.84e-9 IS=1e-30 N=10)
.MODEL MOSMOD NMOS (VTO=1.63 KP=11.55 IS=1e-30 N=10 TOX=1 L=1u W=1u)
.MODEL RBKMOD RES (TC1=9.15e-4 TC2=3.13e-7)
.MODEL RDSMOD RES (TC1=-2.155e-3 TC2=-2.7e-6)
.MODEL RVTOMOD RES (TC1=-1.820e-3 TC2=1.47e-7)
.MODEL S1AMOD VSWITCH(RON=1e-5 ROFF=0.1 VON=-6.05 VOFF=-4.05)
.MODEL S1BMOD VSWITCH(RON=1e-5 ROFF=0.1 VON=-4.05 VOFF=-6.05)
.MODEL S2AMOD VSWITCH(RON=1e-5 ROFF=0.1 VON=-0.72 VOFF=4.28)
.MODEL S2BMOD VSWITCH(RON=1e-5 ROFF=0.1 VON=4.28 VOFF=-0.72)
.ENDS
.SUBCKT RF1K49092P_HA 2 1 3 ; REV 10/24/94
*Term. Conn. ****  D G S
*Spice circuit model file for the P-Channel MOSFET in the RF1K49092
*For a detail specification see datasheet FN3968
*************************************************************************
*   For further discussion of this PSPICE PowerFET macromodel consult   *
*    A New PSPICE Sub-circuit for the Power MOSFET Featuring Global     *
*     Temperature Options by William J. Hepp and C. Frank Wheatley      *
*NOM TEMP=25 deg C                                                      *
*************************************************************************
Ca 12 8 8.75e-10
Cb 15 14 8.65e-10
Cin 6 8 7.65e-10
Dbody 5 7 DBDMOD
Dbreak 7 11 DBKMOD
Dplcap 10 6 DPLCAPMOD
Ebreak 5 11 17 18 -23.75
Eds 14 8 5 8 1
Egs 13 8 6 8 1
Esg 5 10 6 8 1
Evto 20 6 8 18 1
It 8 17 1
Ldrain 2 5 1.0e-9
Lgate 1 9 1.233e-9
Lsource 3 7 0.452e-9
Mos1 16 6 8 8 MOSMOD M=0.99
Mos2 16 21 8 8 MOSMOD M=0.01
Rbreak 17 18 RBKMOD 1
Rdrain 5 16 RDSMOD 7.360e-3
Rgate 9 20 1.00
Rin 6 8 1e9
Rsource 8 7 RDSMOD 4.56e-2
Rvto 18 19 RVTOMOD 1
S1a 6 12 13 8 S1AMOD
S1b 13 12 13 8 S1BMOD
S2a 6 15 14 13 S2AMOD
S2b 13 15 14 13 S2BMOD
Vbat 8 19 DC 1
Vto 21 6 -0.558
.MODEL DBDMOD D (IS=3.00e-13 RS=4.40e-2 TRS1=1.00e-3 TRS2=-7.37e-6
+CJO=1.27e-9 TT=2.20e-8)
.MODEL DBKMOD D (RS=7.84e-2 TRS1=-4.27e-3 TRS2=5.77e-5)
.MODEL DPLCAPMOD D (CJO=2.85e-10 IS=1e-30 N=10)
.MODEL MOSMOD PMOS (VTO=-2.1423 KP=9.206 IS=1e-30 N=10 TOX=1 L=1u W=1u)
.MODEL RBKMOD RES (TC1=9.61e-4 TC2=-1.09e-6)
.MODEL RDSMOD RES (TC1=2.10e-3 TC2=6.99e-6)
.MODEL RVTOMOD RES (TC1=-1.820e-3 TC2=1.47e-7)
.MODEL S1AMOD VSWITCH(RON=1e-5 ROFF=0.1 VON=5.47 VOFF=3.47)
.MODEL S1BMOD VSWITCH(RON=1e-5 ROFF=0.1 VON=3.47 VOFF=5.47)
.MODEL S2AMOD VSWITCH(RON=1e-5 ROFF=0.1 VON=1.05 VOFF=-3.95)
.MODEL S2BMOD VSWITCH(RON=1e-5 ROFF=0.1 VON=-3.95 VOFF=1.05)
.ENDS
.SUBCKT RF1K49093_HA 2 1 3 ; REV 10/24/94
*Term. Conn. **** D G S
*Spice circuit model file for the RF1K49093
*For a detail specification see datasheet FN3969
*************************************************************************
*   For further discussion of this PSPICE PowerFET macromodel consult   *
*    A New PSPICE Sub-circuit for the Power MOSFET Featuring Global     *
*     Temperature Options by William J. Hepp and C. Frank Wheatley      *
*NOM TEMP=25 deg C                                                      *
*************************************************************************
Ca 12 8 8.75e-10
Cb 15 14 8.65e-10
Cin 6 8 7.65e-10
Dbody 5 7 DBDMOD
Dbreak 7 11 DBKMOD
Dplcap 10 6 DPLCAPMOD
Ebreak 5 11 17 18 -23.75
Eds 14 8 5 8 1
Egs 13 8 6 8 1
Esg 5 10 6 8 1
Evto 20 6 8 18 1
It 8 17 1
Ldrain 2 5 1.0e-9
Lgate 1 9 1.233e-9
Lsource 3 7 0.452e-9
Mos1 16 6 8 8 MOSMOD M=0.99
Mos2 16 21 8 8 MOSMOD M=0.01
Rbreak 17 18 RBKMOD 1
Rdrain 5 16 RDSMOD 7.360e-3
Rgate 9 20 1.00
Rin 6 8 1e9
Rsource 8 7 RDSMOD 4.56e-3
Rvto 18 19 RVTOMOD 1
S1a 6 12 13 8 S1AMOD
S1b 13 12 13 8 S1BMOD
S2a 6 15 14 13 S2AMOD
S2b 13 15 14 13 S2BMOD
Vbat 8 19 DC 1
Vto 21 6 -0.558
.MODEL DBDMOD D (IS=3.00e-13 RS=4.40e-2 TRS1=1.00e-3 TRS2=-7.37e-6
+CJO=1.27e-9 TT=2.20e-8)
.MODEL DBKMOD D (RS=7.84e-2 TRS1=-4.27e-3 TRS2=5.77e-5)
.MODEL DPLCAPMOD D (CJO=2.85e-10 IS=1e-30 N=10)
.MODEL MOSMOD NMOS (VTO=-2.1423 KP=9.206 IS=1e-30 N=10 TOX=1 L=1u W=1u)
.MODEL RBKMOD RES (TC1=9.6115e-4 TC2=-1.09e-6)
.MODEL RDSMOD RES (TC1=2.10e-3 TC2=6.99e-6)
.MODEL RVTOMOD RES (TC1=-1.820e-3 TC2=1.47e-7)
.MODEL S1AMOD VSWITCH(RON=1e-5 ROFF=0.1 VON=5.47 VOFF=3.47)
.MODEL S1BMOD VSWITCH(RON=1e-5 ROFF=0.1 VON=3.47 VOFF=5.47)
.MODEL S2AMOD VSWITCH(RON=1e-5 ROFF=0.1 VON=1.05 VOFF=-3.95)
.MODEL S2BMOD VSWITCH(RON=1e-5 ROFF=0.1 VON=-3.95 VOFF=1.05)
.ENDS
.SUBCKT RFD16N05_HA 2 1 3 ; REV 10/31/94
*Term. Conn.**** D G S
*Spice Model circuit file for the RFD16N05, RFD16N05SM
*For a detail specification see datasheet FN2267
*************************************************************************
*   For further discussion of this PSPICE PowerFET macromodel consult   *
*    A New PSPICE Sub-circuit for the Power MOSFET Featuring Global     *
*     Temperature Options by William J. Hepp and C. Frank Wheatley      *
*NOM TEMP=25 deg C                                                      *
*************************************************************************
Ca 12 8 1.788e-10
Cb 15 14 1.875e-10
Cin 6 8 8.33e-10
Dbody 7 5 DBDMOD
Dbreak 5 11 DBKMOD
Dplcap 10 5 DPLCAPMOD
Ebreak 11 7 17 18 64.89
Eds 14 8 5 8 1
Egs 13 8 6 8 1
Esg 6 10 6 8 1
Escl 51 50 VALUE={(V(5,51)/ABS(V(5,51)))*(PWR(V(5,51)*1E6/94,7.0))}
Evto 20 6 18 8 1
It 8 17 1
Ldrain 2 5 1e-9
Lgate 1 9 4.56e-9
Lsource 3 7 4.13e-9
Mos1 16 6 8 8 MOSMOD M=0.99
Mos2 16 21 8 8 MOSMOD M=0.01
Rbreak 17 18 RBKMOD 1
Rdrain 5 16 RDSMOD 0.40e-3
Rgate 9 20 3.00
Rin 6 8 1e9
Rscl1 5 51 RSCLMOD 1e-6
Rscl2 5 50 1e3
Rsource 8 7 RDSMOD 21.5e-3
Rvto 18 19 RVTOMOD 1
S1a 6 12 13 8 S1AMOD
S1b 13 12 13 8 S1BMOD
S2a 6 15 14 13 S2AMOD
S2b 13 15 14 13 S2BMOD
Vbat 8 19 DC 1
Vto 21 6 0.82
.MODEL DBDMOD D (IS=2.50e-13 RS=7.10e-3 TRS1=3.04e-3 TRS2=-10.0e-6
+CJO=1.12e-9 TT=5.60e-8)
.MODEL DBKMOD D (RS=2.51e-1 TRS1=-6.57e-4 TRS2=1.66e-6)
.MODEL DPLCAPMOD D (CJO=6.10e-10 IS=1e-30 N=10)
.MODEL MOSMOD NMOS (VTO=3.96 KP=16.68 IS=1e-30 N=10 TOX=1 L=1u W=1u)
.MODEL RBKMOD RES (TC1=1.07e-3 TC2=-7.19e-7)
.MODEL RDSMOD RES (TC1=5.45e-3 TC2=1.66e-5)
.MODEL RSCLMOD RES (TC1=1.25e-3 TC2=17.0e-6)
.MODEL RVTOMOD RES (TC1=-5.15e-3 TC2=-4.83e-6)
.MODEL S1AMOD VSWITCH(RON=1e-5 ROFF=0.1 VON=-5.25 VOFF=-3.25)
.MODEL S1BMOD VSWITCH(RON=1e-5 ROFF=0.1 VON=-3.25 VOFF=-5.25)
.MODEL S2AMOD VSWITCH(RON=1e-5 ROFF=0.1 VON=0.56 VOFF=5.56)
.MODEL S2BMOD VSWITCH(RON=1e-5 ROFF=0.1 VON=5.56 VOFF=0.56)
.ENDS
.SUBCKT RFP25N05_HA 2 1 3 ; REV 8/19/94
*Term. Conn.**** D G S
*Spice Model circuit file for the RFP25N05
*For a detail specification see datasheet FN2112
*************************************************************************
*   For further discussion of this PSPICE PowerFET macromodel consult   *
*    A New PSPICE Sub-circuit for the Power MOSFET Featuring Global     *
*     Temperature Options by William J. Hepp and C. Frank Wheatley      *
*NOM TEMP=25 deg C                                                      *
*************************************************************************
Ca 12 8 1.83e-9
Cb 15 14 1.98e-9
Cin 6 8 9.70e-10
Dbody 7 5 DBDMOD
Dbreak 5 11 DBKMOD
Dplcap 10 5 DPLCAPMOD
Ebreak 11 7 17 18 65.90
Eds 14 8 5 8 1
Egs 13 8 6 8 1
Esg 6 10 6 8 1
Escl 51 50 VALUE={(V(5,51)/ABS(V(5,51)))*(PWR(V(5,51)*1E6/108,6.0))}
Evto 20 6 18 8 1
It 8 17 1
Ldrain 2 5 1e-9
Lgate 1 9 4.92e-9
Lsource 3 7 4.50e-9
Mos1 16 6 8 8 MOSMOD M=0.99
Mos2 16 21 8 8 MOSMOD M=0.01
Rbreak 17 18 RBKMOD 1
Rdrain 5 16 RDSMOD 1.10e-3
Rgate 9 20 2.88
Rin 6 8 1e9
Rscl1 5 51 RSCLMOD 1e-6
Rscl2 5 50 1e3
Rsource 8 7 RDSMOD 20.3e-3
Rvto 18 19 RVTOMOD 1
S1a 6 12 13 8 S1AMOD
S1b 13 12 13 8 S1BMOD
S2a 6 15 14 13 S2AMOD
S2b 13 15 14 13 S2BMOD
Vbat 8 19 DC 1
Vto 21 6 0.764
.MODEL DBDMOD D (IS=2.32e-13 RS=5.72e-3 TRS1=2.56e-3 TRS2=-5.13e-6
+CJO=1.18e-9 TT=5.62e-8)
.MODEL DBKMOD D (RS=2.00e-1 TRS1=3.33e-4 TRS2=2.68e-6)
.MODEL DPLCAPMOD D (CJO=6.55e-10 IS=1e-30 N=10)
.MODEL MOSMOD NMOS (VTO=3.89 KP=15.03 IS=1e-30 N=10 TOX=1 L=1u W=1u)
.MODEL RBKMOD RES (TC1=1.04e-3 TC2=-1.04e-6)
.MODEL RDSMOD RES (TC1=5.85e-3 TC2=1.77e-5)
.MODEL RSCLMOD RES (TC1=2.00e-3 TC2=1.50e-5)
.MODEL RVTOMOD RES (TC1=-5.35e-3 TC2=-3.77e-6)
.MODEL S1AMOD VSWITCH(RON=1e-5 ROFF=0.1 VON=-5.04 VOFF=-3.04)
.MODEL S1BMOD VSWITCH(RON=1e-5 ROFF=0.1 VON=-3.04 VOFF=-5.04)
.MODEL S2AMOD VSWITCH(RON=1e-5 ROFF=0.1 VON=-3.02 VOFF=1.98)
.MODEL S2BMOD VSWITCH(RON=1e-5 ROFF=0.1 VON=1.98 VOFF=-3.02)
.ENDS
.SUBCKT RFP25N06_HA 2 1 3 ; REV 8/19/94
*Term. Conn.**** D G S
*Spice Model circuit file for the RFP25N06
*For a detail specification see datasheet FN1492
*************************************************************************
*   For further discussion of this PSPICE PowerFET macromodel consult   *
*    A New PSPICE Sub-circuit for the Power MOSFET Featuring Global     *
*     Temperature Options by William J. Hepp and C. Frank Wheatley      *
*NOM TEMP=25 deg C                                                      *
*************************************************************************
Ca 12 8 1.83e-9
Cb 15 14 1.98e-9
Cin 6 8 9.70e-10
Dbody 7 5 DBDMOD
Dbreak 5 11 DBKMOD
Dplcap 10 5 DPLCAPMOD
Ebreak 11 7 17 18 65.90
Eds 14 8 5 8 1
Egs 13 8 6 8 1
Esg 6 10 6 8 1
Escl 51 50 VALUE={(V(5,51)/ABS(V(5,51)))*(PWR(V(5,51)*1E6/108,6.0))}
Evto 20 6 18 8 1
It 8 17 1
Ldrain 2 5 1e-9
Lgate 1 9 4.92e-9
Lsource 3 7 4.50e-9
Mos1 16 6 8 8 MOSMOD M=0.99
Mos2 16 21 8 8 MOSMOD M=0.01
Rbreak 17 18 RBKMOD 1
Rdrain 5 16 RDSMOD 1.10e-3
Rgate 9 20 2.88
Rin 6 8 1e9
Rscl1 5 51 RSCLMOD 1e-6
Rscl2 5 50 1e3
Rsource 8 7 RDSMOD 20.3e-3
Rvto 18 19 RVTOMOD 1
S1a 6 12 13 8 S1AMOD
S1b 13 12 13 8 S1BMOD
S2a 6 15 14 13 S2AMOD
S2b 13 15 14 13 S2BMOD
Vbat 8 19 DC 1
Vto 21 6 0.764
.MODEL DBDMOD D (IS=2.32e-13 RS=5.72e-3 TRS1=2.56e-3 TRS2=-5.13e-6
+CJO=1.18e-9 TT=5.62e-8)
.MODEL DBKMOD D (RS=2.00e-1 TRS1=3.33e-4 TRS2=2.68e-6)
.MODEL DPLCAPMOD D (CJO=6.55e-10 IS=1e-30 N=10)
.MODEL MOSMOD NMOS (VTO=3.89 KP=15.03 IS=1e-30 N=10 TOX=1 L=1u W=1u)
.MODEL RBKMOD RES (TC1=1.04e-3 TC2=-1.04e-6)
.MODEL RDSMOD RES (TC1=5.85e-3 TC2=1.77e-5)
.MODEL RSCLMOD RES (TC1=2.00e-3 TC2=1.50e-5)
.MODEL RVTOMOD RES (TC1=-5.35e-3 TC2=-3.77e-6)
.MODEL S1AMOD VSWITCH(RON=1e-5 ROFF=0.1 VON=-5.04 VOFF=-3.04)
.MODEL S1BMOD VSWITCH(RON=1e-5 ROFF=0.1 VON=-3.04 VOFF=-5.04)
.MODEL S2AMOD VSWITCH(RON=1e-5 ROFF=0.1 VON=-3.02 VOFF=1.98)
.MODEL S2BMOD VSWITCH(RON=1e-5 ROFF=0.1 VON=1.98 VOFF=-3.02)
.ENDS
.SUBCKT RFP30P06_HA 2 1 3 ; REV 12/15/94
*Term. Conn.**** D G S
*Spice Model circuit file for the RFP30P06
*For a detail specification see datasheet FN2437
*************************************************************************
*   For further discussion of this PSPICE PowerFET macromodel consult   *
*    A New PSPICE Sub-circuit for the Power MOSFET Featuring Global     *
*     Temperature Options by William J. Hepp and C. Frank Wheatley      *
*NOM TEMP=25 deg C                                                      *
*************************************************************************
Ca 12 8 3.23e-9
Cb 15 14 3.23e-9
Cin 6 8 3.08e-9
Dbody 5 7 DBDMOD
Dbreak 7 11 DBKMOD
Dplcap 10 6 DPLCAPMOD
Ebreak 5 11 17 18 -77.30
Eds 14 8 5 8 1
Egs 13 8 6 8 1
Esg 5 10 8 6 1
Evto 20 6 8 18 1
It 8 17 1
Mos1 16 6 8 8 MOSMOD M=0.99
Mos2 16 21 8 8 MOSMOD M=0.01
Lgate 1 9 4.92e-9
Ldrain 2 5 1e-9
Lsource 3 7 4.60e-9
Rbreak 17 18 RBKMOD 1
Rdrain 50 16 RDSMOD 39.85e-3
Rgate 9 20 2.34
Rin 6 8 1e9
Rsource 8 7 RDSMOD 2.56e-3
Rvto 18 19 RVTMOD 1
Rscl1 5 51 RSCLMOD 1e-6
Rscl2 5 50 1e3
S1a 6 12 13 8 S1AMOD
S1b 13 12 13 8 S1BMOD
S2a 6 15 14 13 S2AMOD
S2b 13 15 14 13 S2BMOD
Vbat 8 19 DC 1
Vto 21 6 -0.81
ESCL 51 50 VALUE={(V(5,51)/ABS(V(5,51)))*(PWR(V(5,51)*1e6/114,5))}
.MODEL DBDMOD D (IS=4.70e-13 RS=1.31e-2 TRS1=1.39e-4 TRS2=-4.77e-6
+CJO=2.85e-9  TT=8.81e-8)
.MODEL DBKMOD D (RS=2.23e-1 TRS1=1.97e-3 TRS2=-2.37e-5)
.MODEL DPLCAPMOD D (CJO=0.78e-9 IS=1e-30 N=10)
.MODEL MOSMOD PMOS (VTO=-3.75 KP=10.83 IS=1e-30 N=10 TOX=1 L=1u W=1u)
.MODEL RBKMOD RES (TC1=9.08e-4 TC2=-1.27e-6)
.MODEL RDSMOD RES (TC1=5.01e-3 TC2=1.02e-5)
.MODEL RSCLMOD RES (TC1=2.09e-3 TC2=5.88e-7)
.MODEL RVTMOD RES (TC1=-2.99e-3 TC2=1.40e-6)
.MODEL S1AMOD VSWITCH(RON=1e-5 ROFF=0.1 VON=3.40 VOFF=1.40)
.MODEL S1BMOD VSWITCH(RON=1e-5 ROFF=0.1 VON=1.40 VOFF=3.40)
.MODEL S2AMOD VSWITCH(RON=1e-5 ROFF=0.1 VON=1.20 VOFF=-3.80)
.MODEL S2BMOD VSWITCH(RON=1e-5 ROFF=0.1 VON=-3.80 VOFF=1.20)
.ENDS
.SUBCKT RFG30P06_HA 2 1 3 ; REV 12/15/94
*Term. Conn.*****D G S
*Spice model for the RFG30P06
*For a detail specification see datasheet FN2437
*************************************************************************
*   For further discussion of this PSPICE PowerFET macromodel consult   *
*    A New PSPICE Sub-circuit for the Power MOSFET Featuring Global     *
*     Temperature Options by William J. Hepp and C. Frank Wheatley      *
*NOM TEMP=25 deg C                                                      *
*************************************************************************
Ca 12 8 3.23e-9
Cb 15 14 3.23e-9
Cin 6 8 3.08e-9
Dbody 5 7 DBDMOD
Dbreak 7 11 DBKMOD
Dplcap 10 6 DPLCAPMOD
Ebreak 5 11 17 18 -77.30
Eds 14 8 5 8 1
Egs 13 8 6 8 1
Esg 5 10 8 6 1
Evto 20 6 8 18 1
It 8 17 1
Mos1 16 6 8 8 MOSMOD M=0.99
Mos2 16 21 8 8 MOSMOD M=0.01
Lgate 1 9 4.92e-9
Ldrain 2 5 1e-9
Lsource 3 7 4.60e-9
Rbreak 17 18 RBKMOD 1
Rdrain 50 16 RDSMOD 39.85e-3
Rgate 9 20 2.34
Rin 6 8 1e9
Rsource 8 7 RDSMOD 2.56e-3
Rvto 18 19 RVTMOD 1
Rscl1 5 51 RSCLMOD 1e-6
Rscl2 5 50 1e3
S1a 6 12 13 8 S1AMOD
S1b 13 12 13 8 S1BMOD
S2a 6 15 14 13 S2AMOD
S2b 13 15 14 13 S2BMOD
Vbat 8 19 DC 1
Vto 21 6 -0.81
ESCL 51 50 VALUE={(V(5,51)/ABS(V(5,51)))*(PWR(V(5,51)*1e6/114,5))}
.MODEL DBDMOD D (IS=4.70e-13 RS=1.31e-2 TRS1=1.39e-4 TRS2=-4.77e-6
+CJO=2.85e-9  TT=8.81e-8)
.MODEL DBKMOD D (RS=2.23e-1 TRS1=1.97e-3 TRS2=-2.37e-5)
.MODEL DPLCAPMOD D (CJO=0.78e-9 IS=1e-30 N=10)
.MODEL MOSMOD PMOS (VTO=-3.75 KP=10.83 IS=1e-30 N=10 TOX=1 L=1u W=1u)
.MODEL RBKMOD RES (TC1=9.08e-4 TC2=-1.27e-6)
.MODEL RDSMOD RES (TC1=5.01e-3 TC2=1.02e-5)
.MODEL RSCLMOD RES (TC1=2.09e-3 TC2=5.88e-7)
.MODEL RVTMOD RES (TC1=-2.99e-3 TC2=1.40e-6)
.MODEL S1AMOD VSWITCH(RON=1e-5 ROFF=0.1 VON=3.40 VOFF=1.40)
.MODEL S1BMOD VSWITCH(RON=1e-5 ROFF=0.1 VON=1.40 VOFF=3.40)
.MODEL S2AMOD VSWITCH(RON=1e-5 ROFF=0.1 VON=1.20 VOFF=-3.80)
.MODEL S2BMOD VSWITCH(RON=1e-5 ROFF=0.1 VON=-3.80 VOFF=1.20)
.ENDS
.SUBCKT RF1S30P06_HA 2 1 3 ; REV 12/15/94
*Term. Conn.***** D G S
*Spice model for the RF1S30P06, RF1S30P06SM
*For a detail specification see datasheet FN2437
*************************************************************************
*   For further discussion of this PSPICE PowerFET macromodel consult   *
*    A New PSPICE Sub-circuit for the Power MOSFET Featuring Global     *
*     Temperature Options by William J. Hepp and C. Frank Wheatley      *
*NOM TEMP=25 deg C                                                      *
*************************************************************************
Ca 12 8 3.23e-9
Cb 15 14 3.23e-9
Cin 6 8 3.08e-9
Dbody 5 7 DBDMOD
Dbreak 7 11 DBKMOD
Dplcap 10 6 DPLCAPMOD
Ebreak 5 11 17 18 -77.30
Eds 14 8 5 8 1
Egs 13 8 6 8 1
Esg 5 10 8 6 1
Evto 20 6 8 18 1
It 8 17 1
Mos1 16 6 8 8 MOSMOD M=0.99
Mos2 16 21 8 8 MOSMOD M=0.01
Lgate 1 9 4.92e-9
Ldrain 2 5 1e-9
Lsource 3 7 4.60e-9
Rbreak 17 18 RBKMOD 1
Rdrain 50 16 RDSMOD 39.85e-3
Rgate 9 20 2.34
Rin 6 8 1e9
Rsource 8 7 RDSMOD 2.56e-3
Rvto 18 19 RVTMOD 1
Rscl1 5 51 RSCLMOD 1e-6
Rscl2 5 50 1e3
S1a 6 12 13 8 S1AMOD
S1b 13 12 13 8 S1BMOD
S2a 6 15 14 13 S2AMOD
S2b 13 15 14 13 S2BMOD
Vbat 8 19 DC 1
Vto 21 6 -0.81
ESCL 51 50 VALUE={(V(5,51)/ABS(V(5,51)))*(PWR(V(5,51)*1e6/114,5))}
.MODEL DBDMOD D (IS=4.70e-13 RS=1.31e-2 TRS1=1.39e-4 TRS2=-4.77e-6
+CJO=2.85e-9  TT=8.81e-8)
.MODEL DBKMOD D (RS=2.23e-1 TRS1=1.97e-3 TRS2=-2.37e-5)
.MODEL DPLCAPMOD D (CJO=0.78e-9 IS=1e-30 N=10)
.MODEL MOSMOD PMOS (VTO=-3.75 KP=10.83 IS=1e-30 N=10 TOX=1 L=1u W=1u)
.MODEL RBKMOD RES (TC1=9.08e-4 TC2=-1.27e-6)
.MODEL RDSMOD RES (TC1=5.01e-3 TC2=1.02e-5)
.MODEL RSCLMOD RES (TC1=2.09e-3 TC2=5.88e-7)
.MODEL RVTMOD RES (TC1=-2.99e-3 TC2=1.40e-6)
.MODEL S1AMOD VSWITCH(RON=1e-5 ROFF=0.1 VON=3.40 VOFF=1.40)
.MODEL S1BMOD VSWITCH(RON=1e-5 ROFF=0.1 VON=1.40 VOFF=3.40)
.MODEL S2AMOD VSWITCH(RON=1e-5 ROFF=0.1 VON=1.20 VOFF=-3.80)
.MODEL S2BMOD VSWITCH(RON=1e-5 ROFF=0.1 VON=-3.80 VOFF=1.20)
.ENDS
.SUBCKT RFA100N05E_HA 6 1 4 5 3 2 ;   REV 10/30/90
*Term. Conn.****** 2-Drain; 1-Gate; 4-Source1; 5-Source2
*                  3-Drain Kelvin; 6-Source Kelvin
*Spice model circuit file for the RFA100N05E
*For a detail specification see datasheet FN2869
*************************************************************************
*   For further discussion of this PSPICE PowerFET macromodel consult   *
*    A New PSPICE Sub-circuit for the Power MOSFET Featuring Global     *
*     Temperature Options by William J. Hepp and C. Frank Wheatley      *
*NOM TEMP=25 deg C                                                      *
*************************************************************************
Ca 12 8 8.98e-9
Cb 15 14 8.81e-9
Cin 24 8 4.48e-9
Dbody 7 21 DBDMOD
Dbreak 21 11 DBKMOD
Dplcap 10 21 DPLCAPMOD
Ebreak 11 7 17 18 58.4
Eds 14 8 21 8 1
Egs 13 8 24 8 1
Esg 24 10 24 8 1
Evto 20 24 18 8 1
It 8 17 1
Ldkelvin 3 23 1e-9
Ldrain 2 21 1e-9
Lgate 1 9 5e-9
Lskelvin 6 7 5e-9
Lsource1 4 22 6e-9
Lsource2 5 26 6e-9
Mos1 16 24 8 8 MOSMOD M=0.99
Mos2 16 25 8 8 MOSMOD M=0.01
Rin 24 8 1e9
Rbreak 17 18 RBKMOD 1
Rdrain 21 16 RDSMOD 2.74e-3
Rgate 9 20 1.2
Rksource1 7 22 1.6e-3
Rksource2 7 26 1.6e-3
Rkdrain 23 21 0.33e-3
Rsource 8 7 RDSMOD 1.2e-3
Rvto 18 19 RVTMOD 1
S1a 24 12 13 8 S1AMOD
S1b 13 12 13 8 S1BMOD
S2a 24 15 14 13 S2AMOD
S2b 13 15 14 13 S2BMOD
Vbat 8 19 DC 1
Vto 25 24 0.6
.MODEL DBDMOD D (IS=2.23e-12 RS=2.28e-3 TRS1=2.98e-3 TRS2=2.2e-12
+CJO=7.55e-9 TT=4e-8)
.MODEL DBKMOD D (RS=8e-2 TRS1=2.5e-3 TRS2=0)
.MODEL DPLCAPMOD D (CJO=2.14e-9 IS=1e-30 N=10)
.MODEL MOSMOD NMOS (VTO=3.48 KP=78.5 IS=1e-30 N=10 TOX=1 L=1u W=1u)
.MODEL RBKMOD RES (TC1=9.5e-4 TC2=-1.17e-6)
.MODEL RDSMOD RES (TC1=5.2e-3 TC2=1.37e-5)
.MODEL RVTMOD RES (TC1=-3.78e-3 TC2=-7.51e-7)
.MODEL S1AMOD VSWITCH(RON=1e-5 ROFF=0.1 VON=-2.48 VOFF=-0.48)
.MODEL S1BMOD VSWITCH(RON=1e-5 ROFF=0.1 VON=-0.48 VOFF=-2.48)
.MODEL S2AMOD VSWITCH(RON=1e-5 ROFF=0.1 VON=-2.25 VOFF=2.75)
.MODEL S2BMOD VSWITCH(RON=1e-5 ROFF=0.1 VON=2.75 VOFF=-2.25)
.ENDS
.SUBCKT RFD14N05_HA 2 1 3 ; REV 9/12/94
*Term. Conn.**** D G S
*Spice Model circuit file for the RFD14N05, RFD14N05SM
*For a detail specification see datasheet FN2268
*************************************************************************
*   For further discussion of this PSPICE PowerFET macromodel consult   *
*    A New PSPICE Sub-circuit for the Power MOSFET Featuring Global     *
*     Temperature Options by William J. Hepp and C. Frank Wheatley      *
*NOM TEMP=25 deg C                                                      *
*************************************************************************
Ca 12 8 8.84e-10
Cb 15 14 9.34e-10
Cin 6 8 5.20e-10
Dbody 7 5 DBDMOD
Dbreak 5 11 DBKMOD
Dplcap 10 5 DPLCAPMOD
Ebreak 11 7 17 18 62.87
Eds 14 8 5 8 1
Egs 13 8 6 8 1
Esg 6 10 6 8 1
Escl 51 50 VALUE={(V(5,51)/ABS(V(5,51)))*(PWR(V(5,51)*1E6/50,6.0))}
Evto 20 6 18 8 1
It 8 17 1
Ldrain 2 5 1e-9
Lgate 1 9 4.34e-9
Lsource 3 7 3.79e-9
Mos1 16 6 8 8 MOSMOD M=0.99
Mos2 16 21 8 8 MOSMOD M=0.01
Rbreak 17 18 RBKMOD 1
Rdrain 5 16 RDSMOD 2.20e-3
Rgate 9 20 5.64
Rin 6 8 1e9
Rscl1 5 51 RSCLMOD 1e-6
Rscl2 5 50 1e3
Rsource 8 7 RDSMOD 42.3e-3
Rvto 18 19 RVTOMOD 1
S1a 6 12 13 8 S1AMOD
S1b 13 12 13 8 S1BMOD
S2a 6 15 14 13 S2AMOD
S2b 13 15 14 13 S2BMOD
Vbat 8 19 DC 1
Vto 21 6 0.82
.MODEL DBDMOD D (IS=1.50e-13 RS=10.9e-3 TRS1=2.30e-3 TRS2=-1.75e-5
+CJO=6.84e-10 TT=4.20e-8)
.MODEL DBKMOD D (RS=4.15e-1 TRS1=3.73e-3 TRS2=-3.21e-5)
.MODEL DPLCAPMOD D (CJO=26.2e-11 IS=1e-30 N=10)
.MODEL MOSMOD NMOS (VTO=3.91 KP=12.68 IS=1e-30 N=10 TOX=1 L=1u W=1u)
.MODEL RBKMOD RES (TC1=7.73e-4 TC2=2.12e-6)
.MODEL RDSMOD RES (TC1=5.00e-3 TC2=2.53e-5)
.MODEL RSCLMOD RES (TC1=2.05e-3 TC2=1.35e-5)
.MODEL RVTOMOD RES (TC1=-4.44e-3 TC2=-6.45e-6)
.MODEL S1AMOD VSWITCH(RON=1e-5 ROFF=0.1 VON=-5.29 VOFF=-3.29)
.MODEL S1BMOD VSWITCH(RON=1e-5 ROFF=0.1 VON=-3.29 VOFF=-5.29)
.MODEL S2AMOD VSWITCH(RON=1e-5 ROFF=0.1 VON=-2.25 VOFF=2.75)
.MODEL S2BMOD VSWITCH(RON=1e-5 ROFF=0.1 VON=2.75 VOFF=-2.25)
.ENDS
.SUBCKT RFD14N06_HA 2 1 3 ; REV 9/12/94
*Term. Conn.**** D G S
*Spice Model circuit file for the RFD14N06, RFD14N06SM
*For a detail specification see datasheet FN4002
*************************************************************************
*   For further discussion of this PSPICE PowerFET macromodel consult   *
*    A New PSPICE Sub-circuit for the Power MOSFET Featuring Global     *
*     Temperature Options by William J. Hepp and C. Frank Wheatley      *
*NOM TEMP=25 deg C                                                      *
*************************************************************************
Ca 12 8 8.84e-10
Cb 15 14 9.34e-10
Cin 6 8 5.20e-10
Dbody 7 5 DBDMOD
Dbreak 5 11 DBKMOD
Dplcap 10 5 DPLCAPMOD
Ebreak 11 7 17 18 62.87
Eds 14 8 5 8 1
Egs 13 8 6 8 1
Esg 6 10 6 8 1