**********
*   For further discussion of these PowerFET IsSpice4 macromodels consult
*    A New SPICE Sub-circuit for the Power MOSFET Featuring Global
*     Temperature Options by William J. Hepp and C. Frank Wheatley
**********
*SRC=RFA100N05E;RF100N05;MOSFETs N;Harris;50V 100A
*SYM=PWMOSN3
.SUBCKT RF100N05 2 1 4 5 3 6 ;REV 10/30/90 SPICE CKT MODEL FILE"A100N05E.CIR"
*Term. Conn.       2-Drain; 1-Gate; 4-Source1; 5-Source2
*                  3-Drain Kelvin; 6-Source Kelvin
*
*
Ca 12 8 8.98e-9
Cb 15 14 8.81e-9
Cin 24 8 4.48e-9
Dbody 7 21 DBDMOD
Dbreak 21 11 DBKMOD
Dplcap 10 21 DPLCAPMOD
Ebreak 11 7 17 18 58.4
Eds 14 8 21 8 1
Egs 13 8 24 8 1
Esg 24 10 24 8 1
Evto 20 24 18 8 1
It 8 17 1
Ldkelvin 3 23 1e-9
Ldrain 2 21 1e-9
Lgate 1 9 5e-9
Lskelvin 6 7 5e-9
Lsource1 4 22 6e-9
Lsource2 5 26 6e-9
Mos1 16 24 8 8 MOSMOD L=1U W=.99U
Mos2 16 25 8 8 MOSMOD L=1U W=.01U
Rin 24 8 1e9
Rbreak 17 18 RBKMOD 1
Rdrain 21 16 RDSMOD 2.74e-3
Rgate 9 20 1.2
Rksource1 7 22 1.6e-3
Rksource2 7 26 1.6e-3
Rkdrain 23 21 0.33e-3
Rsource 8 7 RDSMOD 1.2e-3
Rvto 18 19 RVTMOD 1
XS1a 24 12 13 8 PSW2{RON=1e-5 ROFF=0.1 VON=-2.48 VOFF=-0.48}
XS1b 13 12 13 8 PSW1{RON=1e-5 ROFF=0.1 VON=-0.48 VOFF=-2.48}
XS2a 24 15 14 13 PSW2{RON=1e-5 ROFF=0.1 VON=-2.25 VOFF=2.75}
XS2b 13 15 14 13 PSW1{RON=1e-5 ROFF=0.1 VON=2.75 VOFF=-2.25}
Vbat 8 19 DC 1
Vto 25 24 0.6
.MODEL DBDMOD D (IS=2.23e-12 RS=2.28e-3  
+ CJO=7.55e-9 TT=4e-8)
.MODEL DBKMOD D (RS=8e-2 )
.MODEL DPLCAPMOD D (CJO=2.14e-9 IS=1e-30  )
.MODEL MOSMOD NMOS (VTO=3.48 KP=78.5 IS=1e-30   TOX=1)
.MODEL RBKMOD R (TC1=9.5e-4 TC2=-1.17e-6)
.MODEL RDSMOD R (TC1=5.2e-3 TC2=1.37e-5)
.MODEL RVTMOD R (TC1=-3.78e-3 TC2=-7.51e-7)
.ENDS
*INCLUDE HARRMOS.LIB
**********
*SRC=RFH75N05E;RFH75N05;MOSFETs N;Harris;50V 75A
*SYM=POWMOSN
.SUBCKT RFH75N05 2 1 3 ; REV 3/20/91 SPICE MODEL CKT FILE "H75N05E.CIR"
*Term. Conn. *    D G S
*
*
Ca 12 8 8.98e-9
Cb 15 14 8.81e-9
Cin 6 8 4.48e-9
Dbreak 5 11 DBKMOD
Dbody 7 5 DBDMOD
Dplcap 10 5 DPLCAPMOD
Ebreak 11 7 17 18 58.4
Eds 14 8 5 8 1
Egs 13 8 6 8 1
Esg 6 10 6 8 1
Evto 20 6 18 8 1
It 8 17 1
Ldrain 2 5 1e-9
Lgate 1 9 5e-9
Lsource 3 7 3e-9
Mos1 16 6 8 8 MOSMOD L=1U W=.99U
Mos2 16 21 8 8 MOSMOD L=1U W=.01U
Rbreak 17 18 RBKMOD 1
Rdrain 5 16 RDSMOD 3.07e-3
Rgate 9 20 1.2
Rin 6 8 1e9
Rsource 8 7 RDSMOD 2e-3
Rvto 18 19 RVTMOD 1
XS1a 6 12 13 8 PSW2{RON=1e-5 ROFF=0.1 VON=-2.48 VOFF=-0.48}
XS1b 13 12 13 8 PSW1{RON=1e-5 ROFF=0.1 VON=-0.48 VOFF=-2.48}
XS2a 6 15 14 13 PSW2{RON=1e-5 ROFF=0.1 VON=-2.25 VOFF=2.75}
XS2b 13 15 14 13 PSW1{RON=1e-5 ROFF=0.1 VON=2.75 VOFF=-2.25}
Vbat 8 19 DC 1
Vto 21 6 0.6
.MODEL DBDMOD D (IS=2.23e-12 RS=2.28e-3  
+ CJO=7.55e-9 TT=4e-8)
.MODEL DBKMOD D (RS=8e-2 )
.MODEL DPLCAPMOD D (CJO=2.14e-9 IS=1e-30  )
.MODEL MOSMOD NMOS (VTO=3.48 KP=78.5 IS=1e-30   TOX=1)
.MODEL RBKMOD R (TC1=9.5e-4 TC2=-1.17e-6)
.MODEL RDSMOD R (TC1=5.2e-3 TC2=1.37e-5)
.MODEL RVTMOD R (TC1=-3.78e-3 TC2=-7.51e-7)
.ENDS
*INCLUDE HARRMOS.LIB
**********
*SRC=RFD16N05;RD16N05;MOSFETs N;Harris;50V 16A
*SYM=POWMOSN
.SUBCKT RD16N05 2 1 3; REV 10/31/94
*Term. Conn. * D G S
* IsSpice4 Model circuit file for the following parts:
* RFD16N05, RD16N05SM
*
Ca 12 8 1.788e-10
Cb 15 14 1.875e-10
Cin 6 8 8.33e-10
Dbody 7 5 DBDMOD
Dbreak 5 11 DBKMOD
Dplcap 10 5 DPLCAPMOD
Ebreak 11 7 17 18 64.89
Eds 14 8 5 8 1
Egs 13 8 6 8 1
Esg 6 10 6 8 1
BSCL 51 50 V= (V(5,51)/ABS(V(5,51)))*((V(5,51)*1E6/94)^7.0)
Evto 20 6 18 8 1
It 8 17 1
Ldrain 2 5 1e-9
Lgate 1 9 4.56e-9
Lsource 3 7 4.13e-9
Mos1 16 6 8 8 MOSMOD W=0.99U L=1U
Mos2 16 21 8 8 MOSMOD W=0.01U L=1U
Rbreak 17 18 RBKMOD 1
Rdrain 5 16 RDSMOD 0.40e-3
Rgate 9 20 3.00
Rin 6 8 1e9
Rscl1 5 51 RSCLMOD 1e-6
Rscl2 5 50 1e3
Rsource 8 7 RDSMOD 21.5e-3
Rvto 18 19 RVTOMOD 1
XS1a 6 12 13 8 PSW2{RON=1e-5 ROFF=0.1 VON=-5.25 VOFF=-3.25}
XS1b 13 12 13 8 PSW1{RON=1e-5 ROFF=0.1 VON=-3.25 VOFF=-5.25}
XS2a 6 15 14 13 PSW2{RON=1e-5 ROFF=0.1 VON=0.56 VOFF=5.56}
XS2b 13 15 14 13 PSW1{RON=1e-5 ROFF=0.1 VON=5.56 VOFF=0.56}
Vbat 8 19 DC 1
Vto 21 6 0.82
.MODEL DBDMOD D (IS=2.50e-13 RS=7.10e-3 
+ CJO=1.12e-9 TT=5.60e-8)
*TRS1=3.04e-3 TRS2=-10.0e-6
.MODEL DBKMOD D (RS=2.51e-1) 
*TRS1=-6.57e-4 TRS2=1.66e-6
.MODEL DPLCAPMOD D (CJO=6.10e-10 IS=1e-30 N=10)
.MODEL MOSMOD NMOS (VTO=3.96 KP=16.68 IS=1e-30 TOX=1)
*N=10
.MODEL RBKMOD R (TC1=1.07e-3 TC2=-7.19e-7)
.MODEL RDSMOD R (TC1=5.45e-3 TC2=1.66e-5)
.MODEL RSCLMOD R (TC1=1.25e-3 TC2=17.0e-6)
.MODEL RVTOMOD R (TC1=-5.15e-3 TC2=-4.83e-6)
.ENDS
*INCLUDE HARRMOS.LIB
**********
* SRC=RFD16N05L;RFD16N05;MOSFETs N;Harris;50V 16A
*SYM=POWMOSN
.SUBCKT RFD16N05 2 1 3 ; REV 4/8/92 SPICE CKT FILE "D16N05L.CIR"
*Term. Conn.      D G S
*
Ca 12 8 3.33E-9
Cb 15 14 3.11E-9
Cin 6 8 1.21E-9
Dbody 7 5 DBDMOD
Dbreak 5 11 DBKMOD
Dplcap 10 5 DPLCAPMOD
Ebreak 11 7 17 18 70.9
Eds 14 8 5 8 1
Egs 13 8 6 8 1
Esg 6 10 6 8 1
Evto 20 6 18 8 1
It 8 17 1
Lgate 1 9 1.38E-9
Ldrain 2 5 1.0E-12
Lsource 3 7 1.0E-9
Mos1 16 6 8 8 MOSMOD    L=1U W=.99U
Mos2 16 21 8 8 MOSMOD   L=1U W=.01U
Rin 6 8 1e9
Rbreak 17 18 1 RBKMOD 
Rdrain 5 16 27.38E-3 RDSMOD 
Rgate 9 20 2.98
Rsource 8 7 0.614E-3 RDSMOD 
Rvto 18 19 1 RVTOMOD
XS1a 6 12 13 8 PSW2{RON=1e-5 ROFF=0.1 VON=-4.25 VOFF=-2.25}
XS1b 13 12 13 8 PSW1{RON=1e-5 ROFF=0.1 VON=-2.25 VOFF=-4.25}
XS2a 6 15 14 13 PSW2{RON=1e-5 ROFF=0.1 VON=-0.65 VOFF=4.35}
XS2b 13 15 14 13 PSW1{RON=1e-5 ROFF=0.1 VON=4.35 VOFF=-0.65}
Vbat 8 19 DC 1
Vto 21 6 0.448
.MODEL DBDMOD D (IS=1.34E-13 RS=1.21E-2 
+ CJO=1.13E-9 TT=4.14E-8)
.MODEL DBKMOD D (RS=8.82E-2)
.MODEL DPLCAPMOD D (CJO=0.522E-9 IS=1e-30)
.MODEL MOSMOD NMOS (VTO=2.054 KP=24.73 IS=1e-30 TOX=1)
.MODEL RBKMOD R  (TC1=1.01E-3 TC2=5.21E-8)
.MODEL RDSMOD R  (TC1=3.66E-3 TC2=1.46E-5)
.MODEL RVTOMOD R  (TC1=-1.81E-3 TC2=1.41E-6)
.ENDS
*INCLUDE HARRMOS.LIB
**********
*SRC=RFM15N06;RFM15N06;MOSFETs N;Harris;60V 15A
*SYM=POWMOSN
.SUBCKT RFM15N06 2 1 3 ; Rev 01/07/91 SPICE MODEL CKT FILE "M15N06.CIR"
* Term. Conn.    D G S
*
*
Ca 12 8 9.14e-10
Cb 15 14 5.81e-10
Cin 6 8 4.44e-10
Dbody 7 5 DBDMOD
Dbreak 5 11 DBKMOD
Dplcap 10 5 DPLCAPMOD
Ebreak 11 7 17 18 102.35
Eds 14 8 5 8 1
Egs 13 8 6 8 1
Esg 6 10 6 8 1
Evto 20 6 18 8 1
Evto2 21 6 22 17 .74
It 8 22 1
Ldrain 2 5 1.0e-10
Lgate 1 9 1.3244e-8 
Lsource 3 7 1.168e-8
Mos 16 6 8 8 MOSMOD L=1U W=.99U
Mos2 16 21 8 8 MOSMOD L=1U W=.01U
Rbreak 17 18 RBKMOD 1
Rdrain 5 16 RDSMOD 13.3e-3
Rgate 9 20 20.43
Rin 6 8 1e9
Rsource 8 7 RDSMOD 34.82e-3 
Rvto 18 19 RVTOMOD 1
Rvto2 22 17 RVTOMOD2 1
XS1a 6 12 13 8 PSW2{RON=1e-5 ROFF=0.1 VON=-3.66 VOFF=-1.66}
XS1b 13 12 13 8 PSW1{RON=1e-5 ROFF=0.1 VON=-1.66 VOFF=-3.66}
XS2a 6 15 14 13 PSW2{RON=1e-5 ROFF=0.1 VON=3.07 VOFF=8.07}
XS2b 13 15 14 13 PSW1{RON=1e-5 ROFF=0.1 VON=8.07 VOFF=3.07}
Vbat 8 19 DC 1
.MODEL DBDMOD D (IS=8.16e-13 RS=1.54e-2 
+ CJO=9.16e-10 TT=7e-8)
.MODEL DBKMOD D (RS=3.83e-1 )
.MODEL DPLCAPMOD D (CJO=4.90e-10 IS=1e-30  )
.MODEL MOSMOD NMOS (VTO=3.46 KP=3.09 IS=1e-30   TOX=1)
.MODEL RBKMOD R (TC1=8.33e-4 TC2=-6.51e-7)
.MODEL RDSMOD R (TC1=6.5e-3 TC2=3.28e-5)
.MODEL RVTOMOD R (TC1=-4.30e-3 TC2=-3.77e-6) 
.MODEL RVTOMOD2 R (TC1=0 TC2=0)
.ENDS
*INCLUDE HARRMOS.LIB 
**********
*SRC=FRL230;FRL230;MOSFETs N;Harris;
*SYM=POWMOSN
.SUBCKT FRL230  1 2 3   ; REV 9/12/90 SPICE MODEL CKT FILE "FRL230.CIR"
*Term. Conn.    D G S 
*
*
Ca 12 8 2.377e-9
Cb 15 14 2.043E-9
Cin 6 8 10.59e-9
Dbreak 5 11 DBKMOD
Dbody 7 5 DBDMOD
Dplcap 10 5 DPLCAPMOD
Eds 14 8 5 8 1
Egs 13 8 6 8 1
Esg 6 10 6 8 1
Ldrain 1 5 1e-9
Lgate 2 9 5.0e-9
Lsource 3 7 5.0e-9
Mos 5 6 8 8 MOSMOD L=1U W=1U
Rin 6 8 1e9
Rgate 9 6 1.00
Rsource 8 7 2.067e-2
XS1a 6 12 13 8 PSW2{RON=1e-5 ROFF=0.1 VON=-2.68 VOFF=-0.68}
XS1b 12 13 13 8 PSW1{RON=1e-5 ROFF=0.1 VON=-0.68 VOFF=-2.68}
XS2a 6 15 14 13 PSW2{RON=1e-5 ROFF=0.1 VON=-6.40 VOFF=13.60}
XS2b 15 13 14 13 PSW1{RON=1e-5 ROFF=0.1 VON=13.60 VOFF=-6.40}
Vbreak 11 7 DC 213.3
.MODEL DBDMOD D (IS=4.320e-13 RS=2.279e-2 CJO=9.178e-10 TT=3.057e-7)
.MODEL DBKMOD D (RS=1.2)
.MODEL DPLCAPMOD D (CJO=3.593e-10 IS=1e-30  )
.MODEL MOSMOD NMOS (VTO=4.070 KP=1.929 IS=1e-30   TOX=1
+ RD=3.267E-1)
.ENDS
*INCLUDE HARRMOS.LIB
**********
*SRC=RLP1N08LE;RLP1N08L;MOSFETs N;Harris;80V 1A
*SYM=POWMOSN
.SUBCKT RLP1N08L 2 1 3 ; Rev 9/16/91 SPICE CKT MODEL FILE "LP1N08LE.CIR"
*Term. Conn.      D G S
*
Ca 12 8 6.5e-10
Cb 15 14 6.5e-10
Cin 6 8 3.75e-10
Dbreak 5 11 DBKMOD
Dbody 7 5 DBDMOD
Dplcap 10 5 DPLCAPMOD
Ebreak 11 7 17 18 107.3
Eds 14 8 5 8 1
Egs 13 8 6 8 1
Esg 6 10 6 8 1
Evto 20 6 18 8 1
It 8 17 1
Lgate 1 9 9.5e-10
Ldrain 2 5 2.5e-9
Lsource 3 7 2.5e-9
Mos1 16 6 8 8 MOSMOD L=1U W=.99U
Mos2 16 21 8 8 MOSMOD L=1U W=.01U
Rbreak 17 18 RBKMOD 1
Rdrain 5 16 RDMOD 0.2
Rin 6 8 1e9
*Rgate 9 20 4.48e3
Rgate 9 20 4.48
Rvto 18 19 RVTOMOD 1
XS1a 6 12 13 8 PSW2{RON=1e-5 ROFF=0.1 VON=-3 VOFF=-1}
XS1b 13 12 13 8 PSW1{RON=1e-5 ROFF=0.1 VON=-1 VOFF=-3}
XS2a 6 15 14 13 PSW2{RON=1e-5 ROFF=0.1 VON=-1.65 VOFF=3.35}
XS2b 13 15 14 13 PSW1{RON=1e-5 ROFF=0.1 VON=3.35 VOFF=-1.65}
Vbat 8 19 DC 1
Vto 21 6 0.33
* Current limiter parts *
Rsource 8 7 RSMOD 0.28             
.MODEL RSMOD R (TC1=3.2e-3)
Qcontrol 20 8 7 QMOD 10
.MODEL Qmod NPN (BF=5 VJE=.5)
* ESD protection diode *
Desd 7 9 DESDMOD                   
.MODEL DESDMOD D (BV= 7.185 )
.MODEL DBDMOD D (IS=9.91e-15 RS=3.01e-1  
+ CJO=4.32e-10 TT=2e-7)
.MODEL DBKMOD D (RS=2.78  )
.MODEL DPLCAPMOD D (CJO=2e-10 IS=1e-30  )
.MODEL MOSMOD NMOS (VTO=1.7 KP=2.1 IS=1e-30   TOX=1)
.MODEL RDMOD R (TC1=7.54E-3 TC2=2.23E-5)
.MODEL RBKMOD R (TC1=1.11e-3 TC2=-6.83e-7)
.MODEL RVTOMOD R (TC1=-2.23e-3 TC2=-5.29e-7)
.ENDS
*INCLUDE HARRMOS.LIB
**********
*SRC=RFP10P03L;RFP10P03;MOSFETs P;Harris;30V 10A
*SYM=POWMOSP
.SUBCKT RFP10P03 2 1 3 ; REV 11/6/92 SPICE CKT MODEL FILE "P10P03L.CIR"
*Term. Conn.     D G S
*
Ca 12 8 1.42e-9
Cb 15 14 1.3e-9
Cin 6 8 6.7e-8
Dbody 5 7 DBDMOD
Dbreak 7 11 DBKMOD
Dplcap 10 6 DPLCAPMOD
Ebreak 5 11 17 18 -51.9
Eds 14 8 5 8 1
Egs 13 8 6 8 1
Esg 5 10 8 6 1
Evto 20 6 18 8 1
It 8 17 1
Mos1 16 6 8 8 MOSMOD L=1U W=.99U
Mos2 16 21 8 8 MOSMOD L=1U W=.01U
Lgate 1 9 8.7e-12
Ldrain 2 5 1e-9
Lsource 3 7 7.6e-9
Rbreak 17 18 RBKMOD 1
Rdrain 5 16 RDSMOD 79.08e-3
Rgate 9 20 12.25
Rin 6 8 1e9
Rsource 8 7 RDSMOD 27.49e-3
Rvto 18 19 RVTMOD 1
XS1a 6 12 13 8 PSW1{RON=1e-5 ROFF=0.1 VON=4.42 VOFF=2.42}
XS1b 13 12 13 8 PSW2{RON=1e-5 ROFF=0.1 VON=2.42 VOFF=4.42}
XS2a 6 15 14 13 PSW1{RON=1e-5 ROFF=0.1 VON=1.43 VOFF=-3.57}
XS2b 13 15 14 13 PSW2{RON=1e-5 ROFF=0.1 VON=-3.57 VOFF=1.43}
Vbat 8 19 DC 1
Vto 21 6 -0.50
.MODEL DBDMOD D (IS=1.14e-13 RS=2.86e-2 
+ CJO=8.55e-10 TT=3.84e-8)
.MODEL DBKMOD D (RS=3.32e-1 )
.MODEL DPLCAPMOD D (CJO=4.3e-8 IS=1e-30  )
.MODEL MOSMOD PMOS (VTO=-2.01 KP=5.3105 IS=1e-30   TOX=1)
.MODEL RBKMOD R (TC1=6.07e-4 TC2=3.30e-6)
.MODEL RDSMOD R (TC1=3.48e-3 TC2=8.83e-6)
.MODEL RVTMOD R (TC1=-1.51e-3 TC2=8.74e-7)
.ENDS
*INCLUDE HARRMOS.LIB
**********
*SRC=RFP15N06;RFP15N06;MOSFETs N;Harris;50V 15A
*SYM=POWMOSN
.SUBCKT RFP15N06 2 1 3 ; Rev 01/07/91 SPICE CKT MODEL FILE "P15N06.CIR"
*Term. Conn.*    D G S
*
Ca 12 8 9.14e-10
Cb 15 14 5.81e-10
Cin 6 8 4.44e-10
Dbody 7 5 DBDMOD
Dbreak 5 11 DBKMOD
Dplcap 10 5 DPLCAPMOD
Ebreak 11 7 17 18 102.35
Eds 14 8 5 8 1
Egs 13 8 6 8 1
Esg 6 10 6 8 1
Evto 20 6 18 8 1
Evto2 21 6 22 17 .74
It 8 22 1
Ldrain 2 5 2.58e-9
Lgate 1 9 9.5e-10
Lsource 3 7 2.58e-9
Mos 16 6 8 8 MOSMOD L=1U W=.99U
Mos2 16 21 8 8 MOSMOD L=1U W=.01U
Rbreak 17 18 RBKMOD 1
Rdrain 5 16 RDSMOD 13.3e-3
Rgate 9 20 20.43
Rin 6 8 1e9
Rsource 8 7 RDSMOD 34.82e-3 
Rvto 18 19 RVTOMOD 1
Rvto2 22 17 RVTOMOD2 1
XS1a 6 12 13 8 PSW2{RON=1e-5 ROFF=0.1 VON=-3.66 VOFF=-1.66}
XS1b 13 12 13 8 PSW1{RON=1e-5 ROFF=0.1 VON=-1.66 VOFF=-3.66}
XS2a 6 15 14 13 PSW2{RON=1e-5 ROFF=0.1 VON=3.07 VOFF=8.07}
XS2b 13 15 14 13 PSW1{RON=1e-5 ROFF=0.1 VON=8.07 VOFF=3.07}
Vbat 8 19 DC 1
.MODEL DBDMOD D (IS=8.16e-13 RS=1.54e-2 
+ CJO=9.16e-10 TT=7e-8)
.MODEL DBKMOD D (RS=3.83e-1 )
.MODEL DPLCAPMOD D (CJO=4.90e-10 IS=1e-30  )
.MODEL MOSMOD NMOS (VTO=3.46 KP=3.09 IS=1e-30   TOX=1)
.MODEL RBKMOD R (TC1=8.33e-4 TC2=-6.51e-7)
.MODEL RDSMOD R (TC1=6.5e-3 TC2=3.28e-5)
.MODEL RVTOMOD R (TC1=-4.30e-3 TC2=-3.77e-6) 
.MODEL RVTOMOD2 R (TC1=0 TC2=0)
.ENDS
*INCLUDE HARRMOS.LIB 
**********
*SRC=RFP70N03;RFP70N03;MOSFETs N;Harris;30V 70A
*SYM=POWMOSN
.SUBCKT RFP70N03 2 1 3 ; REV 9/16/92 SPICE MODEL CKT FILE "P70N03.CIR"
*Term. Conn.*    D G S
*
Ca 12 8 6.09e-9
Cb 15 14 6.05e-9
Cin 6 8 3.40e-9
Dbody 7 5 DBDMOD
Dbreak 5 11 DBKMOD
Dplcap 10 5 DPLCAPMOD
Ebreak 11 7 17 18 35.4
Eds 14 8 5 8 1
Egs 13 8 6 8 1
Esg 6 10 6 8 1
Evto 20 6 18 8 1
It 8 17 1
Ldrain 2 5 1e-9
Lgate 1 9 3.10e-9
Lsource 3 7 1.82e-9
Mos1 16 6 8 8 MOSMOD L=1U W=.99U
Mos2 16 21 8 8 MOSMOD L=1U W=.01U
Rbreak 17 18 RBKMOD 1
Rdrain 5 16 RDSMOD 30.7e-6
Rgate 9 20 .890
Rin 6 8 1e9
Rsource 8 7 RDSMOD 3.922e-3
Rvto 18 19 RVTMOD 1
XS1a 6 12 13 8 PSW2{RON=1e-5 ROFF=0.1 VON=-8.35 VOFF=-6.35}
XS1b 13 12 13 8 PSW1{RON=1e-5 ROFF=0.1 VON=-6.35 VOFF=-8.35}
XS2a 6 15 14 13 PSW2{RON=1e-5 ROFF=0.1 VON=-2.0 VOFF=3.0}
XS2b 13 15 14 13 PSW1{RON=1e-5 ROFF=0.1 VON=3.0 VOFF=-2.0}
Vbat 8 19 DC 1
Vto 21 6 0.605
.MODEL DBDMOD D (IS=7.91e-12 RS=3.87e-3 
+ CJO=4.84e-9 TT=4.51e-8)
.MODEL DBKMOD D (RS=3.9e-2 )
.MODEL DPLCAPMOD D (CJO=4.8e-9 IS=1e-30  )
.MODEL MOSMOD NMOS (VTO=3.46 KP=47 IS=1e-30   TOX=1)
.MODEL RBKMOD R (TC1=8.46e-4 TC2=-8.48e-7)
.MODEL RDSMOD R (TC1=2.23e-3 TC2=6.56e-6)
.MODEL RVTMOD R (TC1=-3.29e-3 TC2=-3.49e-7)
.ENDS
*INCLUDE HARRMOS.LIB
**********
*SRC=RFP70N06;RFP70N06;MOSFETs N;Harris;60V 70A
*SYM=POWMOSN
.SUBCKT RFP70N06 2 1 3 ; REV 3/20/92 SPICE CKT MODEL FILE "P70N06.CIR"
*Term. Conn.*    D G S
*
Ca 12 8 5.56e-9
Cb 15 14 5.303e-9
Cin 6 8 2.63e-9
Dbody 7 5 DBDMOD
Dbreak 5 11 DBKMOD
Dplcap 10 5 DPLCAPMOD
Ebreak 11 7 17 18 65.1
Eds 14 8 5 8 1
Egs 13 8 6 8 1
Esg 6 10 6 8 1
Evto 20 6 18 8 1
It 8 17 1
Lgate 1 9 3.10e-9
Ldrain 2 5 1e-9
Lsource 3 7 1.82e-9
Mos1 16 6 8 8 MOSMOD L=1U W=.99U
Mos2 16 21 8 8 MOSMOD L=1U W=.01U
Rbreak 17 18 RBKMOD 1
Rdrain 5 16 RDSMOD 4.6593e-3
Rgate 9 20 1.21
Rin 6 8 1e9
Rsource 8 7 RDSMOD 1.822e-3
Rvto 18 19 RVTMOD 1
XS1a 6 12 13 8 PSW2{RON=1e-5 ROFF=0.1 VON=-4.90 VOFF=-2.90}
XS1b 13 12 13 8 PSW1{RON=1e-5 ROFF=0.1 VON=-2.90 VOFF=-4.90}
XS2a 6 15 14 13 PSW2{RON=1e-5 ROFF=0.1 VON=-3.20 VOFF=4.80}
XS2b 13 15 14 13 PSW1{RON=1e-5 ROFF=0.1 VON=4.80 VOFF=-3.20}
Vbat 8 19 DC 1
Vto 21 6 0.6977
.MODEL DBDMOD D (IS=1.11e-12 RS=2.91e-3 
+ CJO=3.12e-9 TT=6.18e-8)
.MODEL DBKMOD D (RS=9.46e-2 )
.MODEL DPLCAPMOD D (CJO=1.92e-9 IS=1e-30  )
.MODEL MOSMOD NMOS (VTO=3.674 KP=38.507 IS=1e-30   TOX=1)
.MODEL RBKMOD R (TC1=9.55e-4 TC2=5.99e-8)
.MODEL RDSMOD R (TC1=5.01e-3 TC2=2.37e-5)
.MODEL RVTMOD R (TC1=-3.71e-3 TC2=-6.01e-7)
.ENDS
*INCLUDE HARRMOS.LIB
**********
*SRC=FRL130;FRL130;MOSFETs N;Harris;
*SYM=PWMOSN2
.SUBCKT FRL130  1 2 3 4  ; REV 7/27/90 SPICE MODEL CKT FILE "FRL130.CIR"
*Term. Conn.    D G S Kelvin
*
Ca 12 8 2.28e-9
Cb 15 14 1.793E-9
Cin 6 8 8.461e-10
Dbreak 5 11 DBKMOD
Dbody 7 5 DBDMOD
Dplcap 10 5 DPLCAPMOD
Eds 14 8 5 8 1
Egs 13 8 6 8 1
Esg 6 10 6 8 1
Ldrain 1 5 1e-9
Lgate 2 9 5.0e-9
Lkelvin 4 8 5e-9
Lsource 3 7 5.0e-9
Mos 5 6 8 8 MOSMOD  L=1u W=1u
Rgate 9 6 1.00
Rin 6 8 1e9
Rsource 8 7 1.288e-2
XS1a 6 12 13 8 PSW2{RON=1e-5 ROFF=0.1 VON=-2.18 VOFF=-0.18}
XS1b 12 13 13 8 PSW1{RON=1e-5 ROFF=0.1 VON=-0.18 VOFF=-2.18}
XS2a 6 15 14 13 PSW2{RON=1e-5 ROFF=0.1 VON=-5.0 VOFF=15}
XS2b 15 13 14 13 PSW1{RON=1e-5 ROFF=0.1 VON=15 VOFF=-5.0}
Vbreak 11 7 DC 107.3
.MODEL DBDMOD D (IS=3.287e-13 RS=1.312e-2 CJO=1.81E-9 TT=2.186e-7)
.MODEL DBKMOD D (RS=7.5e-1)
.MODEL DPLCAPMOD D (CJO=5.415e-10 IS=1e-30  ) 
.MODEL MOSMOD NMOS (VTO=3.366 KP=3.385 IS=1e-30 TOX=1
+ RD=4.118E-2)
.ENDS
*INCLUDE HARRMOS.LIB
**********
*SRC=IRF130;IRF130;MOSFETs N;Harris;
*SYM=POWMOSN
.SUBCKT IRF130  3 2 11 ; REV. 5/87 SPICE MODEL CKT FILE "IRF130.CIR"
*Term Conn.*    D G S
*
C21 2 1 900P
C23 2 3 40P
C24 2 4 1360P
DBODY 1 3 DMOD2
DBREAK 3 7 DMOD3
D1 5 6 DMOD
E41 5 11 4 1 1.0
FDSCHRG 4 2 VMEAS 1.0
JFET 3 1 4 JMOD AREA=1
LSOURCE 10 11 7.5N
MOS1 4 2 1 1 MOSMOD L=1U W=1U
RSOURCE 1 10 17.5E-03
VBREAK 7 1 DC 117
VMEAS 8 11 DC 0
VPINCH 6 8 DC 6.4
.MODEL DMOD D (IS=1.0E-13 N=0.03 RS=0.001)
.MODEL DMOD2 D (CJO=1650P TT=70N IS=3.0E-12 RS=2.5E-03)
.MODEL DMOD3 D (IS=1.0E-13 RS=2.0 N=1.0)
.MODEL JMOD NJF (VTO=-6.4 BETA=640.0 IS=1.0E-20 RD=42.5E-03)
.MODEL MOSMOD NMOS (VTO=3.4 KP=6.40 TOX=1.0E+06U)
.ENDS
*INCLUDE HARRMOS.LIB
**********
*SRC=FRK150;FRK150;MOSFETs N;Harris;
*SYM=POWMOSN
.SUBCKT FRK150  3 2 11 ; REV. 5/03/90 SPICE CKT MODEL FILE "FRK150.CIR"
*Term. Conn.    D G S
*
C21 2 1 3900P
C23 2 3 350P
C24 2 4 8000P
DBODY 9 3 DMOD2
DBREAK 3 7 DMOD3
D1 5 6 DMOD
E41 5 11 4 1 1.0
FDSCHRG 4 2 VMEAS 1.0
LSOURCE 10 11 7.5N
JFET 3 9 4 JMOD 1
MOS1 4 2 1 1 MOSMOD L=1U W=1U
RSOURCE 1 10 0.016
R21 2 1 1E9
R91 9 1 0.0001
VBREAK 7 1 DC 115
VMEAS 8 11 DC 0
VPINCH 6 8 DC 5.5
.MODEL DMOD D (IS=1.0E-13 N=0.03 RS=0.001)
.MODEL DMOD2 D (CJO=8910P TT=700N IS=5.1E-12)
.MODEL DMOD3 D (IS=1.0E-13 RS=0.5 N=1.0)
.MODEL JMOD NJF (VTO=-5.5 BETA=1400.0 IS=5.1E-18 RD=0.0111)
.MODEL MOSMOD NMOS (VTO=4.0 KP=14.0 TOX=1.0E+06U)
.ENDS
*INCLUDE HARRMOS.LIB
**********
*SRC=FRK250;FRK250;MOSFETs N;Harris;
*SYM=POWMOSN
.SUBCKT FRK250  3 2 11 ; REV. 6/14/90 SPICE CKT MODEL FILE "FRK250.CIR"
*Term. Conn.    D G S
*
C21 2 1 4800P
C23 2 3 200P
C24 2 4 9400P
DBODY 9 3 DMOD2
DBREAK 3 7 DMOD3
D1 5 6 DMOD
E41 5 11 4 1 1.0
FDSCHRG 4 2 VMEAS 1.0
JFET 3 9 4 JMOD 1
LSOURCE 10 11 7.5N
MOS1 4 2 1 1 MOSMOD L=1U W=1U
RSOURCE 1 10 0.01827
R21 2 1 1E9
R91 9 1 0.00654
VPINCH 6 8 DC 8.0
VMEAS 8 11 DC 0
VBREAK 7 1 DC 240
.MODEL DMOD D (IS=1.0E-13 N=0.03 RS=0.001)
.MODEL DMOD2 D (CJO=4200P TT=1000N IS=8.7E-13)
.MODEL DMOD3 D (IS=1.0E-13 RS=1.111 N=1.0)
.MODEL JMOD NJF (VTO=-8.0 BETA=1216.2 IS=8.7E-19 RD=0.05983)
.MODEL MOSMOD NMOS (VTO=4.463 KP=12.162 TOX=1.0E+06U)
.ENDS
*INCLUDE HARRMOS.LIB
**********
*SRC=FRK254;FRK254;MOSFETs N;Harris;
*SYM=POWMOSN
.SUBCKT FRK254  3 2 11 ; REV. 6/15/90 SPICE CKT MODEL FILE "FRK254.CIR"
*Term. Conn.    D G S
*
C21 2 1 4800P
C23 2 3 200P
C24 2 4 9400P
DBODY 9 3 DMOD2
DBREAK 3 7 DMOD3
D1 5 6 DMOD
E41 5 11 4 1 1.0
FDSCHRG 4 2 VMEAS 1.0
JFET 3 9 4 JMOD 1
LSOURCE 10 11 7.5N
MOS1 4 2 1 1 MOSMOD L=1U W=1U
RSOURCE 1 10 0.01827
R21 2 1 1E9
R91 9 1 0.00654
VBREAK 7 1 DC 240
VMEAS 8 11 DC 0
VPINCH 6 8 DC 8.0
.MODEL DMOD D (IS=1.0E-13 N=0.03 RS=0.001)
.MODEL DMOD2 D (CJO=4200P TT=1000N IS=8.7E-13)
.MODEL DMOD3 D (IS=1.0E-13 RS=1.111 N=1.0)
.MODEL JMOD NJF (VTO=-8.0 BETA=1216.2 IS=8.7E-19 RD=0.05983)
.MODEL MOSMOD NMOS (VTO=4.463 KP=12.162 TOX=1.0E+06U)
.ENDS
*INCLUDE HARRMOS.LIB
**********
*SRC=2N7291;2N7291;MOSFETs N;Harris;
*SYM=POWMOSN
.SUBCKT 2N7291 3 2 11 ; REV. 5/03/90
*              D G S 
*
R21 2 1 1E9
R91 9 1 0.0001
C21 2 1 3900P
C23 2 3 350P
C24 2 4 8000P
FDSCHRG 4 2 VMEAS 1.0
MOS1 4 2 1 1 MOSMOD L=1U W=1U
JFET 3 9 4 JMOD 1
DBODY 9 3 DMOD2
RSOURCE 1 10 0.016
LSOURCE 10 11 7.5N
E41 5 11 4 1 1.0
D1 5 6 DMOD
VPINCH 6 8 DC 5.5
VMEAS 8 11 DC 0
DBREAK 3 7 DMOD3
VBREAK 7 1 DC 115
.MODEL MOSMOD NMOS VTO=4.0 KP=14.0 TOX=1.0E+06U
.MODEL JMOD NJF VTO=-5.5 BETA=1400.0 IS=5.1E-18 RD=0.0111
.MODEL DMOD D IS=1.0E-13 N=0.03 RS=0.001
.MODEL DMOD2 D CJO=8910P TT=700N IS=5.1E-12
.MODEL DMOD3 D IS=1.0E-13 RS=0.5 N=1.0
.ENDS
*INCLUDE HARRMOS.LIB
**********
*SRC=2N7292;2N7292;MOSFETs N;Harris;
*SYM=POWMOSN
.SUBCKT 2N7292 3 2 11 ; REV. 6/14/90
*              D G S 
*
R21 2 1 1E9
R91 9 1 0.00654
C21 2 1 4800P
C23 2 3 200P
C24 2 4 9400P
FDSCHRG 4 2 VMEAS 1.0
MOS1 4 2 1 1 MOSMOD L=1U W=1U
JFET 3 9 4 JMOD 1
DBODY 9 3 DMOD2
RSOURCE 1 10 0.01827
LSOURCE 10 11 7.5N
E41 5 11 4 1 1.0
D1 5 6 DMOD
VPINCH 6 8 DC 8.0
VMEAS 8 11 DC 0
DBREAK 3 7 DMOD3
VBREAK 7 1 DC 240
.MODEL MOSMOD NMOS VTO=4.463 KP=12.162 TOX=1.0E+06U
.MODEL JMOD NJF VTO=-8.0 BETA=1216.2 IS=8.7E-19 RD=0.05983
.MODEL DMOD D IS=1.0E-13 N=0.03 RS=0.001
.MODEL DMOD2 D CJO=4200P TT=1000N IS=8.7E-13
.MODEL DMOD3 D IS=1.0E-13 RS=1.111 N=1.0
.ENDS
*INCLUDE HARRMOS.LIB
**********
*SRC=2N7295;2N7295;MOSFETs N;Harris;
*SYM=POWMOSN
.SUBCKT 2N7295 3 2 11 ; REV. 5/09/90
*              D G S 
*
R21 2 1 1E9
R91 9 1 0.00125
C21 2 1 4100P
C23 2 3 50P
C24 2 4 7000P
FDSCHRG 4 2 VMEAS 1.0
MOS1 4 2 1 1 MOSMOD L=1U W=1U
JFET 3 9 4 JMOD 1
DBODY 9 3 DMOD2
RSOURCE 1 10 0.01
LSOURCE 10 11 7.5N
E41 5 11 4 1 1.0
D1 5 6 DMOD
VPINCH 6 8 DC 7.5
VMEAS 8 11 DC 0
DBREAK 3 7 DMOD3
VBREAK 7 1 DC 280
.MODEL MOSMOD NMOS VTO=3.75 KP=7.346 TOX=1.0E+06U
.MODEL JMOD NJF VTO=-7.5 BETA=734.6 IS=1.2E-18 RD=0.1241
.MODEL DMOD D IS=1.0E-13 N=0.03 RS=0.001
.MODEL DMOD2 D CJO=3600P TT=1500N IS=1.2E-12
.MODEL DMOD3 D IS=1.0E-13 RS=1.0 N=1.0
.ENDS
*INCLUDE HARRMOS.LIB
**********
.SUBCKT PSW1 1 2 3   4 {RON=1 ROFF=1MEG VON=1 VOFF=0}
A1 1 2 3 4 SMOOTH
.MODEL SMOOTH VSWITCH RON={RON} ROFF={ROFF} VON={VON} VOFF={VOFF}
.ENDS
**********
.SUBCKT PSW2 1 2 3   4 {RON=1 ROFF=1MEG VON=1 VOFF=0}
*Connections + - NC+ NC-
A1 1 2 3 4 SMOOTH
.MODEL SMOOTH VSWITCH RON={RON} ROFF={ROFF} VON={VON} VOFF={VOFF}
.ENDS
**********
.SUBCKT PSW1x 1 2 3   4 {RON=1 ROFF=1MEG VON=1 VOFF=0}
*Connections + - NC+ NC-
* VON > Voff Case
* IF VC > VON THEN RS=RON, IF VC < VOFF THEN RS=ROFF, ELSE
* RS = exp(Lm + 3*Lr*(Vc-Vm)/(2*Vd) - 2*Lr*(Vc-Vm)^3/Vd^3)
B1 1 2 I=V(3,4) < {VOFF} ? V(1,2)/{ROFF} : V(3,4) > {VON} ?
+ V(1,2)/{RON} : V(1,2)/ (EXP(LN({(RON*ROFF)^.5}) + 
+ 3 * LN({RON/ROFF}) * (V(3,4) - {(VON+VOFF)/2}) / ({2* (VON-VOFF)}) - 
+ 2 * LN({RON/ROFF}) * (V(3,4) - {(VON+VOFF)/2})^3 / {(VON-VOFF)^3} ))
.ENDS
**********
.SUBCKT PSW2x 1 2 3   4 {RON=1 ROFF=1MEG VON=0 VOFF=1}
*Connections + - NC+ NC-
* VON < Voff Case
B1 1 2 I=V(3,4) < {VON} ? V(1,2)/{RON} : V(3,4) > {VOFF} ?
+ V(1,2)/{ROFF} : V(1,2)/ (EXP(LN({(RON*ROFF)^.5}) - (3 * LN({RON/ROFF}) * 
+ (V(3,4) - {(VON+VOFF)/2}) / {2* (VOFF-VON)}) + 
+ (2 * LN({RON/ROFF}) * (V(3,4) - {(VON+VOFF)/2})^3 / {(VOFF-VON)^3} )))
.ENDS
**********
*SRC=RF1K49088;R1K49088;MOSFETs N;Harris;
*SYM=POWMOSN
.SUBCKT R1K49088 2 1 3; REV 7/21/94
*Term. Conn.  * D G S
* Spice circuit model file for RF1K49088
*
Ca 12 8 1.081e-9
Cb 15 14 1.13e-9
Cin 6 8 0.673e-9
Dbody 7 5 DBDMOD
Dbreak 5 11 DBKMOD
Dplcap 10 5 DPLCAPMOD
Ebreak 11 7 17 18 34.1
Eds 14 8 5 8 1
Egs 13 8 6 8 1
Esg 6 10 6 8 1
Evto 20 6 18 8 1
It 8 17 1
Ldrain 2 5 1.0e-9
Lgate 1 9 1.233e-9
Lsource 3 7 0.452e-9
Mos1 16 6 8 8 MOSMOD W=0.99U L=1U
Mos2 16 21 8 8 MOSMOD W=0.01U L=1U
Rbreak 17 18 RBKMOD 1
Rdrain 5 16 RDSMOD 1.408e-3
Rgate 9 20 3.33
Rin 6 8 1e9
Rsource 8 7 RDSMOD 20.0e-3
Rvto 18 19 RVTOMOD 1
XS1a 6 12 13 8 PSW2{RON=1e-5 ROFF=0.1 VON=-6.20 VOFF=-3.80}
XS1b 13 12 13 8 PSW1{RON=1e-5 ROFF=0.1 VON=-3.80 VOFF=-6.20}
XS2a 6 15 14 13 PSW2{RON=1e-5 ROFF=0.1 VON=-1.40 VOFF=4.10}
XS2b 13 15 14 13 PSW1{RON=1e-5 ROFF=0.1 VON=4.10 VOFF=-1.40}
Vbat 8 19 DC 1
Vto 21 6 0.211
.MODEL DBDMOD D (IS=2.82e-13 RS=1.72e-2
+ CJO=9.19e-10 TT=2.03e-8)
*TRS1=1.58e-3 TRS2=1.23e-7
.MODEL DBKMOD D (RS=2.65e-1)
*TRS1=5.00e-3 TRS2=7.09e-5
.MODEL DPLCAPMOD D (CJO=0.42e-9 IS=1e-30 N=10)
.MODEL MOSMOD NMOS (VTO=2.010 KP=15.01 IS=1e-30 TOX=1)
*n=10
.MODEL RBKMOD R (TC1=1.02e-3 TC2=-1.98e-6)
.MODEL RDSMOD R (TC1=3.50e-3 TC2=3.70-6)
.MODEL RVTOMOD R (TC1=-2.53e-3 TC2=8.13e-7)
.ENDS
*INCLUDE HARRMOS.LIB
********
*SRC=RF1K49090;R1K49090;MOSFETs N;Harris;
*SYM=POWMOSN
.SUBCKT R1K49090 2 1 3; REV 8/29/94
*Term. Conn.  * D G S
* Spice circuit model file for RF1K49090
*
Ca 12 8 9.77e-10
Cb 15 14 9.19e-10
Cin 6 8 7.81e-10
Dbody 7 5 DBDMOD
Dbreak 5 11 DBKMOD
Dplcap 10 5 DPLCAPMOD
Ebreak 11 7 17 18 14.89
Eds 14 8 5 8 1
Egs 13 8 6 8 1
Esg 6 10 6 8 1
Evto 20 6 18 8 1
It 8 17 1
Ldrain 2 5 1.0e-9
Lgate 1 9 1.233e-9
Lsource 3 7 0.452e-9
Mos1 16 6 8 8 MOSMOD W=0.99U L=1U
Mos2 16 21 8 8 MOSMOD W=0.01U L=1U
Rbreak 17 18 RBKMOD 1
Rdrain 5 16 RDSMOD 4.910e-3
Rgate 9 20 2.74
Rin 6 8 1e9
Rsource 8 7 RDSMOD 5.00e-3
Rvto 18 19 RVTOMOD 1
XS1a 6 12 13 8 PSW2{RON=1e-5 ROFF=0.1 VON=-6.05 VOFF=-4.05}
XS1b 13 12 13 8 PSW1{RON=1e-5 ROFF=0.1 VON=-4.05 VOFF=-6.05}
XS2a 6 15 14 13 PSW2{RON=1e-5 ROFF=0.1 VON=-0.72 VOFF=4.28}
XS2b 13 15 14 13 PSW1{RON=1e-5 ROFF=0.1 VON=4.28 VOFF=-0.72}
Vbat 8 19 DC 1
Vto 21 6 0.3215
.MODEL DBDMOD D (IS=7.00e-13 RS=2.15e-2 
+ CJO=1.28e-9 TT=1.80e-8)
*TRS1=0.50e-3 TRS2=3.68e-6
.MODEL DBKMOD D (RS=1.28e-1)
*TRS1=1.69e-3 TRS2=-2.0e-6
.MODEL DPLCAPMOD D (CJO=0.84e-9 IS=1e-30 N=10)
.MODEL MOSMOD NMOS (VTO=1.630 KP=11.55 IS=1e-30 TOX=1)
*N=10
.MODEL RBKMOD R (TC1=9.15e-4 TC2=3.13e-7)
.MODEL RDSMOD R (TC1=7.00e-4 TC2=5.00-6)
.MODEL RVTOMOD R (TC1=-2.155e-3 TC2=-2.70e-6)
.ENDS
*INCLUDE HARRMOS.LIB
********
*SRC=RF1K49092N;RK49092N;MOSFETs N;Harris;
*SYM=POWMOSN
.SUBCKT RK49092N 2 1 3; REV 10/24/94
*Term. Conn.  * D G S
* Spice circuit model file for the N-Channel Mosfet in the RF1K49092
*
Ca 12 8 9.77e-10
Cb 15 14 9.19e-10
Cin 6 8 7.81e-10
Dbody 5 7 DBDMOD
Dbreak 7 11 DBKMOD
Dplcap 10 6 DPLCAPMOD
Ebreak 5 11 17 18 14.89
Eds 14 8 5 8 1
Egs 13 8 6 8 1
Esg 5 10 6 8 1
Evto 20 6 8 18 1
It 8 17 1
Ldrain 2 5 1.0e-9
Lgate 1 9 1.233e-9
Lsource 3 7 0.452e-9
Mos1 16 6 8 8 MOSMOD W=0.99U L=1U
Mos2 16 21 8 8 MOSMOD W=0.01U L=1U
Rbreak 17 18 RBKMOD 1
Rdrain 5 16 RDSMOD 4.910e-3
Rgate 9 20 2.74
Rin 6 8 1e9
Rsource 8 7 RDSMOD 5.00e-3
Rvto 18 19 RVTOMOD 1
XS1a 6 12 13 8 PSW2{RON=1e-5 ROFF=0.1 VON=-6.05 VOFF=-4.05}
XS1b 13 12 13 8 PSW1{RON=1e-5 ROFF=0.1 VON=-4.05 VOFF=-6.05}
XS2a 6 15 14 13 PSW2{RON=1e-5 ROFF=0.1 VON=-0.72 VOFF=4.28}
XS2b 13 15 14 13 PSW1{RON=1e-5 ROFF=0.1 VON=4.28 VOFF=-0.72}
Vbat 8 19 DC 1
Vto 21 6 0.3215
.MODEL DBDMOD D (IS=7.00e-13 RS=2.15e-2 
+ CJO=1.28e-9 TT=1.80e-8)
*TRS1=0.50e-3 TRS2=3.68e-6
.MODEL DBKMOD D (RS=1.28e-1) 
*TRS1=1.69e-3 TRS2=-2.0e-6
.MODEL DPLCAPMOD D (CJO=0.84e-9 IS=1e-30 N=10)
.MODEL MOSMOD NMOS (VTO=1.63 KP=11.55 IS=1e-30 TOX=1)
*N=10
.MODEL RBKMOD R (TC1=9.15e-4 TC2=3.13e-7)
.MODEL RDSMOD R (TC1=-2.155e-3 TC2=-2.7e-6)
.MODEL RVTOMOD R (TC1=-1.820e-3 TC2=1.47e-7)
.ENDS
*INCLUDE HARRMOS.LIB
********
*SRC=RF1K49093;R1K49093;MOSFETs P;Harris;
*SYM=POWMOSP
.SUBCKT R1K49093 2 1 3; REV 10/24/94
*Term. Conn.  * D G S
* Spice circuit model file for RF1K49093
*
Ca 12 8 8.75e-10
Cb 15 14 8.65e-10
Cin 6 8 7.65e-10
Dbody 5 7 DBDMOD
Dbreak 7 11 DBKMOD
Dplcap 10 6 DPLCAPMOD
Ebreak 5 11 17 18 -23.75
Eds 14 8 5 8 1
Egs 13 8 6 8 1
Esg 5 10 6 8 1
Evto 20 6 8 18 1
It 8 17 1
Ldrain 2 5 1.0e-9
Lgate 1 9 1.233e-9
Lsource 3 7 0.452e-9
Mos1 16 6 8 8 MOSMOD W=0.99U L=.99U
Mos2 16 21 8 8 MOSMOD W=0.01U L=.01U
Rbreak 17 18 RBKMOD 1
Rdrain 5 16 RDSMOD 7.360e-3
Rgate 9 20 1.00
Rin 6 8 1e9
Rsource 8 7 RDSMOD 4.56e-3
Rvto 18 19 RVTOMOD 1
XS1a 6 12 13 8 PSW2{RON=1e-5 ROFF=0.1 VON=5.47 VOFF=3.47}
XS1b 13 12 13 8 PSW1{RON=1e-5 ROFF=0.1 VON=3.47 VOFF=5.47}
XS2a 6 15 14 13 PSW2{RON=1e-5 ROFF=0.1 VON=1.05 VOFF=-3.95}
XS2b 13 15 14 13 PSW1{RON=1e-5 ROFF=0.1 VON=-3.95 VOFF=1.05}
Vbat 8 19 DC 1
Vto 21 6 -0.558
.MODEL DBDMOD D (IS=3.00e-13 RS=4.40e-2 
+ CJO=1.27e-9 TT=2.20e-8)
*TRS1=1.00e-3 TRS2=-7.37e-6
.MODEL DBKMOD D (RS=7.84e-2) 
*TRS1=-4.27e-3 TRS2=5.77e-5
.MODEL DPLCAPMOD D (CJO=2.85e-10 IS=1e-30 N=10)
.MODEL MOSMOD NMOS (VTO=-2.1423 KP=9.206 IS=1e-30 TOX=1)
*N=10
.MODEL RBKMOD R (TC1=9.6115e-4 TC2=-1.09e-6)
.MODEL RDSMOD R (TC1=2.10e-3 TC2=6.99e-6)
.MODEL RVTOMOD R (TC1=-1.820e-3 TC2=1.47e-7)
.ENDS
*INCLUDE HARRMOS.LIB
********
*SRC=RFP25N05;RP25N05;MOSFETs N;Harris;50V  25A
*SYM=POWMOSN
.SUBCKT RP25N05 2 1 3; REV 8/19/94
*Term. Conn. * D G S
* IsSpice4 Model circuit file for the RFP25N05
*
Ca 12 8 1.83e-9
Cb 15 14 1.98e-9
Cin 6 8 9.70e-10
Dbody 7 5 DBDMOD
Dbreak 5 11 DBKMOD
Dplcap 10 5 DPLCAPMOD
Ebreak 11 7 17 18 65.90
Eds 14 8 5 8 1
Egs 13 8 6 8 1
Esg 6 10 6 8 1
BSCL 51 50 V= (V(5,51)/ABS(V(5,51)))*((V(5,51)*1E6/108)^6.0)
Evto 20 6 18 8 1
It 8 17 1
Ldrain 2 5 1e-9
Lgate 1 9 4.92e-9
Lsource 3 7 4.50e-9
Mos1 16 6 8 8 MOSMOD W=0.99U L=1U
Mos2 16 21 8 8 MOSMOD W=0.01U L=1U
Rbreak 17 18 RBKMOD 1
Rdrain 5 16 RDSMOD 1.10e-3
Rgate 9 20 2.88
Rin 6 8 1e9
Rscl1 5 51 RSCLMOD 1e-6
Rscl2 5 50 1e3
Rsource 8 7 RDSMOD 20.3e-3
Rvto 18 19 RVTOMOD 1
XS1a 6 12 13 8 PSW2{RON=1e-5 ROFF=0.1 VON=-5.04 VOFF=-3.04}
XS1b 13 12 13 8 PSW1{RON=1e-5 ROFF=0.1 VON=-3.04 VOFF=-5.04}
XS2a 6 15 14 13 PSW2{RON=1e-5 ROFF=0.1 VON=-3.02 VOFF=1.98}
XS2b 13 15 14 13 PSW1{RON=1e-5 ROFF=0.1 VON=1.98 VOFF=-3.02}
Vbat 8 19 DC 1
Vto 21 6 0.764
.MODEL DBDMOD D (IS=2.32e-13 RS=5.72e-3
+ CJO=1.18e-9 TT=5.62e-8)
*TRS1=2.56e-3 TRS2=-5.13e-6
.MODEL DBKMOD D (RS=2.00e-1 )
*TRS1=3.33e-4 TRS2=2.68e-6
.MODEL DPLCAPMOD D (CJO=6.55e-10 IS=1e-30 N=10)
.MODEL MOSMOD NMOS (VTO=3.89 KP=15.03 IS=1e-30 TOX=1)
*N=10
.MODEL RBKMOD R (TC1=1.04e-3 TC2=-1.04e-6)
.MODEL RDSMOD R (TC1=5.85e-3 TC2=1.77e-5)
.MODEL RSCLMOD R (TC1=2.00e-3 TC2=1.50e-5)
.MODEL RVTOMOD R (TC1=-5.35e-3 TC2=-3.77e-6)
.ENDS
*INCLUDE HARRMOS.LIB
********
*SRC=RFP25N06;RP25N06;MOSFETs N;Harris;60V 25A
*SYM=POWMOSN
.SUBCKT RP25N06 2 1 3; REV 8/19/94
*Term. Conn. * D G S
* IsSpice4 Model circuit file for the RFP25N06
*
Ca 12 8 1.83e-9
Cb 15 14 1.98e-9
Cin 6 8 9.70e-10
Dbody 7 5 DBDMOD
Dbreak 5 11 DBKMOD
Dplcap 10 5 DPLCAPMOD
Ebreak 11 7 17 18 65.90
Eds 14 8 5 8 1
Egs 13 8 6 8 1
Esg 6 10 6 8 1
BSCL 51 50 V= (V(5,51)/ABS(V(5,51)))*((V(5,51)*1E6/108)^6.0)
Evto 20 6 18 8 1
It 8 17 1
Ldrain 2 5 1e-9
Lgate 1 9 4.92e-9
Lsource 3 7 4.50e-9
Mos1 16 6 8 8 MOSMOD W=0.99U L=1U
Mos2 16 21 8 8 MOSMOD W=0.01U L=1U
Rbreak 17 18 RBKMOD 1
Rdrain 5 16 RDSMOD 1.10e-3
Rgate 9 20 2.88
Rin 6 8 1e9
Rscl1 5 51 RSCLMOD 1e-6
Rscl2 5 50 1e3
Rsource 8 7 RDSMOD 20.3e-3
Rvto 18 19 RVTOMOD 1
XS1a 6 12 13 8 PSW2{RON=1e-5 ROFF=0.1 VON=-5.04 VOFF=-3.04}
XS1b 13 12 13 8 PSW1{RON=1e-5 ROFF=0.1 VON=-3.04 VOFF=-5.04}
XS2a 6 15 14 13 PSW2{RON=1e-5 ROFF=0.1 VON=-3.02 VOFF=1.98}
XS2b 13 15 14 13 PSW1{RON=1e-5 ROFF=0.1 VON=1.98 VOFF=-3.02}
Vbat 8 19 DC 1
Vto 21 6 0.764
.MODEL DBDMOD D (IS=2.32e-13 RS=5.72e-3 
+ CJO=1.18e-9 TT=5.62e-8)
*TRS1=2.56e-3 TRS2=-5.13e-6
.MODEL DBKMOD D (RS=2.00e-1 )
*TRS1=3.33e-4 TRS2=2.68e-6
.MODEL DPLCAPMOD D (CJO=6.55e-10 IS=1e-30 N=10)
.MODEL MOSMOD NMOS (VTO=3.89 KP=15.03 IS=1e-30 TOX=1)
*N=10
.MODEL RBKMOD R (TC1=1.04e-3 TC2=-1.04e-6)
.MODEL RDSMOD R (TC1=5.85e-3 TC2=1.77e-5)
.MODEL RSCLMOD R (TC1=2.00e-3 TC2=1.50e-5)
.MODEL RVTOMOD R (TC1=-5.35e-3 TC2=-3.77e-6)
.ENDS
*INCLUDE HARRMOS.LIB
********

