***********
*SRC=HFA1149;HFA1149;Opamps;Harris;
*SYM=HFA1149
*
* Rev. 2/24/96
* Be sure to set ITL4=100 otherwise, convergence errors may result.
.SUBCKT HFA1149 NINV INV VCC VEE DIS_ THR POL OUT 
X_U10         1 2 VCC VEE 3 HFA1109AMP
AS_S5         5 OUT in2 4 Switch2
RS_S5        in2 4 1G
AS_S6         7 INV in2 6 Switch2
RS_S6        in2 6 1G
V_V38         4 0 .5
V_V39         6 0 .05
AS_S8         9 2 8 in2 Switch2
RS_S8        8 in2 1G
V_V42         8 0 2.0
AS_S9         11 0 10 in2 Switch2
RS_S9        10 in2 1G
V_V43         10 0 2.0
D_D1         12 13 Dlow 
V_V45         14 0 .5
D_D2         15 12 Dlow 
D_D3         14 16 Dlow 
BE_EAMP1         17 0 V = V(18) - V(19) * 1
D_D4         20 21 Dlow 
AS_S13         3 5 in2 22 Sout4
RS_S13        in2 22 1G
V_V52         22 0 .1
V_V54         23 0 .5
AS_S17         7 2 in2 23 Sout4
RS_S17        in2 23 1G
V_V59         24 0 .5
I_I1         0 VCC DC 6.6mA  
I_I2         0 VEE DC -6.6mA  
R_R40         9 3  250  
R_R42         11 25  90  
R_R43         13 18  13k  
C_C11         14 18  5p  
R_R44         14 18  100k  
C_C12         18 15  1p IC=0 
R_R45         15 18  10  
R_R46         16 18  1  
R_R49         in2 21  10  
R_R50         in2 0  1.5k  
C_C17         0 in2  5p  
R_R51         24 18  10e6  
C_C10         OUT 5  .025p  
C_C18         2 INV  .025p  
G_G2         0 VCC 12 0 -1.32e-3
G_G3         0 VEE 12 0 1.32e-3
BE_SUM2         19 0 V = .291 * V(26) + .079 * V(27) + .632 * V(THR) + V(28)
V_V73         28 0 -1.6
AS_S18         2 25 29 0 Switch6
RS_S18        29 0 1G
AS_S19         30 31 POL 0 Sdisable
RS_S19        POL 0 1G
AS_S20         33 34 32 POL Sdisable
RS_S20        32 POL 1G
BE_SUM5         12 0 V = V(30) NINV V(33)
R_R68         0 33  1k  
R_R69         0 30  1k  
V_CONST2         32 0 DC 3.000
BE_GAIN1         35 0 V = 1 * V(DIS_)
R_R71         DIS_ VCC  50k  
R_R72         0 DIS_  5e6  
R_R73         POL VCC  50k  
R_R75         THR 36  50k  
V_V84         36 0 3
R_R76         0 THR  5e6  
R_R77         0 POL  5e6  
R_R80         26 VCC  1  
R_R81         VEE 27  1  
R_R82         0 26  5e6  
R_R83         27 0  5e6  
BE_EAMP2      37 0 V = V(35) - V(19) * -1 
BE_GLIMIT3    34 0 V = V(37)*50 < 0 ? 0 : V(37)*50 > 5 ? 5 : V(37)*50
R_R84         0 34  1k  
BE_GLIMIT2    20 0 V = V(17)*50 < 0 ? 0 : V(17)*50 > 5 ? 5 : V(17)*50 
BE_ABS4       29 0 V = ABS(V(1))
R_R86         NINV 1  1  
R_R87         1 0  10e6  
BE_EAMP4      38 0 V = V(35) - V(19) * 1
BE_GLIMIT5    31 0 V = V(38)*50 < 0 ? 0 : V(38)*50 > 5 ? 5 : V(38)*50
.model Dlow D N=.01
.model Switch6 VSWITCH Roff=300 Ron=1 von=1.0 voff=1.1
.model Sdisable VSWITCH von=2 voff=1
.model Sout4 VSWITCH Ron=.1 Roff=10k von=3.5 voff=.1
.model Switch2 VSWITCH Roff=10e6 Ron=.1 von=.2 voff=.1
.ENDS 
*
.SUBCKT HFA1109AMP       106 107 109 110 108
L200 111 107 1.60000000E-05  
R200 111 107 1.18000000E+02  
C200 107 111 1.30000000E-12  
L100 101 850 5.00000000E-07  
R100 101 106 4.50000000E+03  
C100 101 0 3.1000000000E-13
R850 106 850 75  
RNOTH 0 0 1.00000000E+00  
VMI 111 112 0.00000000E+00  
GINIH 0 113 109 0 1M   
R1IH 113 0 1K  
C1IH 113 0 1.59159637E-13  
R2IH 114 0 -1.00000000E+03  
RY2IH 114 115 1.00000000E+03  
C2IH 115 0 4.82301931E-11  
G2IH 0 114 113 0 -1.00000000E-03  
GOUTIH 116 0 114 0 -1.00000000E+00  
RPGIH 116 0 1  
GINIL 0 117 110 0 1M   
R1IL 117 0 1K  
C1IL 117 0 1.59159637E-13  
R2IL 118 0 -1.00000000E+03  
RY2IL 118 119 1.00000000E+03  
C2IL 119 0 8.37682301E-11  
G2IL 0 118 117 0 -1.00000000E-03  
GOUTIL 120 0 118 0 -1.00000000E+00  
RPGIL 120 0 1  
EVC 121 112 POLY(4)  106 0 111 0 116 0 120 0 -2.76409908E-03     
+ 2.23336645E-04 2.23336645E-04 8.08400638E-05 -5.27513353E-04 0 0     
+ -7.70216445E-06 7.70216445E-06 0 -7.70216445E-06 7.70216445E-06     
+ 7.70216445E-06 0 -7.70216445E-06  
CMI 111 0 1.00000000E-15  
FPM 122 0 VMI 1.00000000E+00  
DMP 122 123 DIM  
DMM 124 122 DIM  
.MODEL DIM D IS=1E-16 N=.001 
GCC 122 0 POLY(4)  106 0 111 0 109 0 110 0 6.58458515E-06   4.90772982E-07 
+ 4.90772982E-07 -1.08867981E-07 1.09041394E-06   0 0 1.74372872E-08 
+ -1.74372872E-08 0 1.74372872E-08 -1.74372872E-08   -1.74372872E-08 0 
+ 1.74372872E-08  
VMP 123 0 0  
VMM 0 124 0  
FMI 0 103 POLY(2) VMP VMM 0 -9.00000000E-03   9.00000000E-03  
RT 103 0 1.00000000E+00  
GPC 0 103 POLY(2)  109 0 110 0 0 +0.00000000E+00 +0.00000000E+00  
GINA 0 125 103 0 1M   
R1A 125 0 1K  
C1A 125 0 1.59159637E-13  
G2A 0 126 125 0 1M  
R2A 126 0 1K  
C2A 126 0 5.89480137E-14  
G3A 0 127 126 0 1M  
R3A 127 0 1K  
C3A 127 0 3.97899093E-15  
R4A 128 0 1.00000000E+03  
RY4A 128 129 -1.00000000E+03  
C4A 129 0 2.65266062E-14  
G4A 0 128 127 0 1.00000000E-03  
R5A 130 0 1.00000000E+03  
RY5A 130 131 -1.00000000E+03  
C5A 131 0 2.27370910E-14  
G5A 0 130 128 0 1.00000000E-03  
GI6A 0 132 130 0 2.00000000E-03  
R6A 132 0 1.00000000E+03  
C6A 132 0 5.82692545E-14  
G6A 0 132 133 0 -1.00000000E-03  
GY6A 0 133 132 0 1M  
CY6A 133 0 3.39618104E-13  
RY6A 133 0 1K
RO6A 0 134 1e9  
R7A 134 135 5.02412563E+05  
GI7A 0 134 133 0 1.99000000E-06  
C7A 134 135 4.28082941E-14  
G7A 0 135 136 0 -1.00000000E-03  
GY7A 0 136 135 0 1M  
CY7A 136 0 1.08077511E-14  
RY7A 136 0 1.00000000E+04  
GZ7A 0 137 134 0 -1.00000000E-06  
RZ7A 137 0 -1.00000000E+06  
RC7A 137 138 1000001  
CZ7A 138 0 2.15074248E-14  
GOUTA 105 0 137 0 -1.00000000E+00  
GRD 102 0 105 0 4.27868630E+00  
GINOH 0 139 109 0 1M   
R1OH 139 0 1K  
C1OH 139 0 1.59159637E-13  
GOUTOH 140 0 139 0 -1.00000000E+00  
RDPH 140 0 1  
GINOL 0 141 110 0 1M   
R1OL 141 0 1K  
C1OL 141 0 1.59159637E-13  
GOUTOL 142 0 141 0 -1.00000000E+00  
RDPL 142 0 1  
G2P 0 105 POLY(2)  140 0 142 0 0 1.38629436E-07 1.38629436E-07  
GRDP 102 0 POLY(2)  140 0 142 0 0 -2.20878759E+00 -2.20878759E+00  
R2 105 0 3.60673760E+06  
CC 105 102 1.00000000E-14  
RD 102 0 7.20000000E+00  
RA 102 108 1.07000000E+01  
DH 102 104 DH 1.00000000E+00  
DL 100 102 DL 1.00000000E+00  
.MODEL DH D  IS=1.99173432E-14 N=.2 
.MODEL DL D  IS=1.28277200E-14 N=.2 
ECC 104 0 POLY(2)  109 0 143 0 -1.19000000E+00 1 1  
EEE 100 0 POLY(2)  110 0 144 0 1.25000000E+00 1 1  
FCC 0 143 POLY(1)  VMI  9.96717960E-05  1.33000000E-01  
RCC 143 0 1K  
CRC 143 0 1.00000000E-10  
D55 143 0 DLIMVO  
FEE 0 144 POLY(1)  VMI  -1.63095844E-04  1.63000000E-01  
REE 144 0 1K  
CRE 144 0 1.00000000E-10  
D66 0 144 DLIMVO  
.MODEL DLIMVO D N=.01 IS=1E-20 
DP 102 145 DCL 1.00000000E+00  
EXP 145 0 POLY(2)  102 0 108 0 0 3.20491434E-01  6.77833280E-01  
DN 146 102 DCL 1.00000000E+00  
EXN 146 0 POLY(2)  102 0 108 0 0 1.86957037E-01   8.11038456E-01  
.MODEL DCL D  IS=1E-9  N=1 
IPS 109 110 9.40000000E-03  
GPS 147 0 102 108 9.34579439E-02  
GH 109 147 POLY(1)  147 110 1.61343210E-02  -3.22686420E-02 2.42014815E-02 
+ -8.06716049E-03 1.00839506E-03  
DPS 147 110 DPS  
.MODEL DPS D IS=1E-16   N=3.40072108E+00 
RNOTHI 0 0 1.00000000E+00  
DVPM 106 109 DLIMM  
GIPM 106 0 POLY(4)  106 0 111 0 109 0 110 0 -5.30320265E-06  1.02950000E-05 
+ -9.70500000E-06  -2.95000000E-07 -2.95000000E-07  
DVNM 110 106 DLIMM  
VIPM 148 149 0  
DIPM 106 148 DLIMM  
DINM 150 106 DLIMM  
VINM 149 150 0  
CPNM 149 0 1.00000000E-15  
RINM 106 101 1.00000000E+04  
CINM 101 0 9.90000000E-14  
GINI 0 151 106 0 1M   
R1I 151 0 1K  
C1I 151 0 1.90382341E-13  
GI2I 0 152 151 0 1.12250000E-03  
R2I 152 0 8.16326531E+03  
C2I 152 0 9.96948751E-14  
G2I 0 152 153 0 -1.00000000E-03  
GY2I 0 153 152 0 1M  
CY2I 153 0 1.61679590E-12  
RY2I 153 0 1K  
G3I 0 154 153 0 1M  
R3I 154 0 1K  
C3I 154 0 7.76388474E-13  
G4I 0 155 154 0 1M  
R4I 155 0 1K  
C4I 155 0 5.30532124E-14  
G5I 0 156 155 0 1M  
R5I 156 0 1K  
C5I 156 0 5.30532124E-14  
R6I 157 0 -1.00000000E+03  
RY6I 157 158 1.00000000E+03  
C6I 158 0 1.76844041E-13  
G6I 0 157 156 0 -1.00000000E-03  
R7I 159 0 -1.00000000E+03  
RY7I 159 160 1.00000000E+03  
C7I 160 0 8.37682301E-14  
G7I 0 159 157 0 -1.00000000E-03  
R8I 161 0 -1.00000000E+03  
RY8I 161 162 1.00000000E+03  
C8I 162 0 8.37682301E-14  
G8I 0 161 159 0 -1.00000000E-03  
R9I 163 0 -2.00000000E+03  
RZ9I 163 164 3.00000000E+03  
C9I 164 0 5.30532124E-14  
G9I 0 163 161 0 -5.00000000E-04  
R10I 165 0 -2.00000000E+03  
RZ10I 165 166 3.00000000E+03  
C10I 166 0 5.30532124E-14  
G10I 0 165 163 0 -5.00000000E-04  
R11I 167 0 -2.00000000E+03  
RZ11I 167 168 3.00000000E+03  
C11I 168 0 5.30532124E-14  
G11I 0 167 165 0 -5.00000000E-04  
R12I 169 0 -2.00000000E+03  
RZ12I 169 170 3.00000000E+03  
C12I 170 0 5.30532124E-14  
G12I 0 169 167 0 -5.00000000E-04  
R13I 171 0 -2.00000000E+03  
RZ13I 171 172 3.00000000E+03  
C13I 172 0 5.30532124E-14  
G13I 0 171 169 0 -5.00000000E-04  
R14I 173 0 -2.00000000E+03  
RZ14I 173 174 3.00000000E+03  
C14I 174 0 5.30532124E-14  
G14I 0 173 171 0 -5.00000000E-04  
R15I 175 0 -2.00000000E+03  
RZ15I 175 176 3.00000000E+03  
C15I 176 0 5.30532124E-14  
G15I 0 175 173 0 -5.00000000E-04  
R16I 177 0 -2.00000000E+03  
RZ16I 177 178 3.00000000E+03  
C16I 178 0 5.30532124E-14  
G16I 0 177 175 0 -5.00000000E-04  
R17I 179 0 -2.00000000E+03  
RZ17I 179 180 3.00000000E+03  
C17I 180 0 5.30532124E-14  
G17I 0 179 177 0 -5.00000000E-04  
R18I 181 0 -2.00000000E+03  
RZ18I 181 182 3.00000000E+03  
C18I 182 0 5.30532124E-14  
G18I 0 181 179 0 -5.00000000E-04  
GOUTI 183 0 181 0 -1.00000000E+00  
GPMM 183 0 184 0 1.00200401E+00  
RPMM 183 0 1.12142857E+11  
VSPM 185 0 9.64285714E-01  
DSPM 183 185 DLIMM  
VSNM 0 186 1.03571429E+00  
DSNM 186 183 DLIMM  
.MODEL DLIMM D N=0.01 
G2M 187 0 POLY(2)  183 0 184 0 0 1.00000000E-03 1.00000000E-03  
F2M 187 0 POLY(2) VIPM VINM  0 1.25000000E+02 -1.25000000E+02  
R2M 187 0 1  
CCM 187 184 1.78571429E-12  
G4M 184 0 187 0 1K  
R4M 184 0 1  
GRDM 0 188 184 0 1.14652603E-02  
RDM 188 0 8.72200000E+01  
RAM 188 121 1.78000000E+00  
DHM 188 189 DVM 1.00000000E+00  
DLM 190 188 DVM  
.MODEL DVM D  IS=1E-16  N=.2 
ECCM 189 0 POLY(1)  109 0 -2.83000000E+00  1.0  
EEEM 190 0 POLY(1)  110 0 2.83000000E+00  1.0  
DPM 188 191 DCLM 1.00000000E+00  
EXPM 191 0 POLY(4)  188 0 121 0 109 0 110 0 0   -5.28714965E+01 5.38520064E+01 
+  9.74504713E-03   9.74504713E-03  
DNM 192 188 DCLM 1.00000000E+00  
EXNM 192 0 POLY(2)  188 0 121 0 0 -8.28974671E+01   8.38903217E+01  
.MODEL DCLM D  IS=1E-20  N=1 
FPS 0 147 VMI  1
.ENDS 
***********
*SRC=HA5022;HA5022;Opamps;Harris;
*SYM=HAEN
*
* HA5022 Macro Model
* Rev. 7/17/96
*
* Subcircuit Call Order: +IN -IN Vcc Vee Out Enable
*
* (Note:This subciruit models only 1 amplifier of the package, so the Icc is
* set to 1/2 the total HA5022 Icc)
*
.SUBCKT HA5022 101 111 113 114 112 110  
LAO 115 112 250N  
RAO 115 112 125  
CAO 112 0 4P  
LAI 116 111 40N  
RAI 116 111 200  
CAI 116 111 3P  
CPI 111 0 1.5P  
CPF 112 111 2.5P  
.MODEL QIP PNP IS=1.0E-16 BF=130 NF=2.2 
.MODEL QIM NPN IS=1.0E-16 BF=220 NF=2.5 
.MODEL QOP NPN IS=1.0E-16 BF=180 NF=2.2 
.MODEL QOM PNP IS=1.1E-16 BF=50 NF=2.5 
ROP 113 117 3.50000000E+02  
QOP 117 118 119 QOP  
CIP2 120 118 2.73661972E-13  
CIP 113 118 6.70000000E-13  
DIP 118 113 DLIM  
GIP 113 118 121 0 3.35000000E-04  
DIPL 114 118 DLIM  
QIP 114 120 118 QIP  
RIN 101 120 280  
CIN2 101 0 .03P  
RIG 101 0 2.60000000E+07  
CIN 120 0 .5PF  
QIM 113 120 122 QIM  
GIM 122 114 121 0 3.35000000E-04  
DIML 122 113 DLIM  
DIM 114 122 DLIM  
CIM 122 114 6.29914530E-13  
CIM2 120 122 3.24501425E-13  
QOM 123 122 119 QOM  
ROM 123 114 3.50000000E+02  
.MODEL DLIM2 D N=.01 IS=1E-10 
RE1 110 124 15K  
RE2 124 113 15K  
DEN 124 113 DEN  
.MODEL DEN D  BV=5.26 IBV=1.0E-10 
VMI 102 108 0.00000000E+00  
EVC 119 108 POLY(4)  101 0 102 0 113 0 114 0 -2.13000009E-03 3.09210000E-04   
+ 3.09210000E-04 -3.15209991E-04 -3.03210009E-04 0 0 -1.88100000E-06   
+ 1.88100000E-06 0 -1.88100000E-06 1.88100000E-06 1.88100000E-06 0   
+ -1.88100000E-06  
CMI 102 0 1.00000000E-16  
HITV 0 125 VMI 1  
RITV 125 0 1  
GII 0 126 POLY(2)  121 0 125 0 0 0 0 0 -1.97000000E-03  
GCC 0 126 POLY(5)  121 0 101 0 102 0 113 0 114 0 0 7.80927711E-09 0 0 0 0 0   
+ 2.78640749E-11 2.78640749E-11 3.49558407E-11 2.07723091E-11 0 0 0 0 0   0 
+ 0 0 0 0 0 0 0 0 0 0 0 -1.92087022E-16 1.92087022E-16 0 -1.92087022E-16   
+ 1.92087022E-16 1.92087022E-16 0 -1.92087022E-16  
RT 126 0 1.00000000E+00  
GPC 0 126 POLY(3)  121 0 113 0 114 0 0 0 0 0 0 0.00000000E+00 0.00000000E+00  
R1A 127 0 2.14285714E+03  
RZ1A 127 128 -1.14285714E+03  
C1A 128 0 7.95798186E-13  
GINA 0 127 126 0 4.66666667E-04   
R2A 129 0 2.25000000E+03  
RZ2A 129 130 -1.25000000E+03  
C2A 130 0 3.18319274E-13  
G2A 0 129 127 0 4.44444444E-04  
GOUTA 106 0 129 0 -1.00000000E+00  
GRD 104 0 106 0 1.02164070E+01  
G2P 0 106 POLY(2)  113 0 114 0 0 3.46573590E-07     3.46573590E-07  
GRDP 104 0 POLY(2)  113 0 114 0 0 -5.10970951E+00     -5.10970951E+00  
R2 106 0 1.44269504E+06  
CC 106 104 1.00000000E-14  
RD 104 0 3.32000000E+02  
RA 104 109 8.00000000E+00  
DH 104 100 DH 1.00000000E+00  
DL 131 104 DL 1.00000000E+00  
.MODEL DH D  IS=2.16387643E-14 N=.2 
.MODEL DL D  IS=6.45488179E-15 N=.2 
ECC 100 0 POLY(2)  113 0 132 0 -1.10000000E+00 1 1  
EEE 131 0 POLY(2)  114 0 133 0 1.13500000E+00 1 1  
FCC 0 132 POLY(1)  VMI  -1.30520000E-04  1.30000000E-01  
RCC 132 0 1K  
CRC 132 0 1.00000000E-10  
D55 132 0 DLIMVO  
FEE 0 133 POLY(1)  VMI  2.19120000E-04  2.20000000E-01  
REE 133 0 1K  
CRE 133 0 1.00000000E-10  
D66 0 133 DLIMVO  
.MODEL DLIMVO D N=.01 IS=1E-20 
DP 104 134 DCL 1.00000000E+00  
EXP 134 0 POLY(2)  104 0 109 0 0 -1.75393075E-01  1.17421768E+00  
DN 107 104 DCL 1.00000000E+00  
EXN 107 0 POLY(2)  104 0 109 0 0 8.82115687E-02   9.09643047E-01  
.MODEL DCL D  IS=1E-9  N=1 
IPS 113 114 5.78000000E-03  
GPS 135 0 104 109 1.25000000E-01  
GH 113 135 POLY(1)  135 114 1.52098765E-02  -3.04197531E-02 2.28148148E-02 
+ -7.60493827E-03 9.50617284E-04  
DPS 135 114 DPS  
.MODEL DPS D IS=1E-16   N=3.40657494E+00 
GEN 0 136 POLY(3)  110 0 113 0 114 0 4.00000000E+00  1.00000000E+00  
+ -1.00000000E+00  0.00000000E+00  
DEH 136 121 DLIM  
REH 121 0 1K  
DE1 121 137 DLIM  
VO1 137 0 0.99  
DEL 0 136 DLIM  
.MODEL DLIM D N=.01 IS=1E-20 
GRM 102 116 POLY(2)  102 116 121 0 0 0 0 0 1.42857143E+01  
GMI2 126 0 POLY(2)  104 0 121 0 0 2.04356846E-10 0 0 -2.04356846E-10  
GOR 0 138 POLY(3)  109 0 115 0 121 0 -6.40000000E-01 0 0 1.28000000E+00 1  -2 0 1  
DOH 138 139 DLIM  
ROH 139 0 1K  
DO1 139 137 DLIM  
DOL 0 138 DLIM  
GRO 109 115 POLY(2)  109 115 139 0 0 0 0 0 1.25000000E+01  
GCR 0 140 POLY(3)  0 140 121 0 104 109 0 0 0 1.25000000E+01 0 100  
DCH 140 141 DLIM  
RCH 141 0 8.00000000E+04  
DC1 141 137 DLIM  
DCL 142 140 DLIM  
RCL 142 0 8.00000000E+04  
DC2 143 142 DLIM  
VC2 0 143 0.99  
GMI3 126 0 POLY(3)  121 0 141 0 0 142 0 0 -1.10000000E-08   1.60000000E-08 0 
+ 1.10000000E-08   -1.60000000E-08  
.ENDS 
************
*SRC=HA5023;HA5023;Opamps;Harris;
*SYM=ADOPAMP
*
* HA5023 Macro Model
* Rev. 7/17/96
*
* Subcircuit Call Order: +IN -IN Vcc Vee Out
*
* (Note:This subciruit models only 1 amplifier of the package, so the Icc is
* set to 1/2 the total HA5023 Icc)
*
.SUBCKT HA5023 101 111 113 114 112  
LAO 115 112 250N  
RAO 115 112 125  
CAO 112 0 4P  
LAI 116 111 40N  
RAI 116 111 200  
CAI 116 111 3P  
CPI 111 0 1.5P  
CPF 112 111 2.5P  
.MODEL QIP PNP IS=1.0E-16 BF=130 NF=2.2 
.MODEL QIM NPN IS=1.0E-16 BF=220 NF=2.5 
.MODEL QOP NPN IS=1.0E-16 BF=180 NF=2.2 
.MODEL QOM PNP IS=1.1E-16 BF=50 NF=2.5 
ROP 113 117 3.50000000E+02  
QOP 117 118 119 QOP  
CIP2 120 118 2.73661972E-13  
CIP 113 118 6.70000000E-13  
DIP 118 113 DLIM  
GIP 113 118 121 0 3.35000000E-04  
DIPL 114 118 DLIM  
QIP 114 120 118 QIP  
RIN 101 120 280  
CIN2 101 0 .03P  
RIG 101 0 2.60000000E+07  
CIN 120 0 .5PF  
QIM 113 120 122 QIM  
GIM 122 114 121 0 3.35000000E-04  
DIML 122 113 DLIM  
DIM 114 122 DLIM  
CIM 122 114 6.29914530E-13  
CIM2 120 122 3.24501425E-13  
QOM 123 122 119 QOM  
ROM 123 114 3.50000000E+02  
.MODEL DLIM2 D N=.01 IS=1E-10 
RE1 113 124 15K  
DEN 124 113 DEN  
.MODEL DEN D  BV=5.26 IBV=1.0E-10 
VMI 102 108 0.00000000E+00  
EVC 119 108 POLY(4)  101 0 102 0 113 0 114 0 -2.13000009E-03 3.09210000E-04   
+ 3.09210000E-04 -3.15209991E-04 -3.03210009E-04 0 0 -1.88100000E-06   
+ 1.88100000E-06 0 -1.88100000E-06 1.88100000E-06 1.88100000E-06 0   
+ -1.88100000E-06  
CMI 102 0 1.00000000E-16  
HITV 0 125 VMI 1  
RITV 125 0 1  
GII 0 126 POLY(2)  121 0 125 0 0 0 0 0 -1.97000000E-03  
GCC 0 126 POLY(5)  121 0 101 0 102 0 113 0 114 0 0 7.80927711E-09 0 0 0 0 0   
+ 2.78640749E-11 2.78640749E-11 3.49558407E-11 2.07723091E-11 0 0 0 0 0   0 
+ 0 0 0 0 0 0 0 0 0 0 0 -1.92087022E-16 1.92087022E-16 0 -1.92087022E-16   
+ 1.92087022E-16 1.92087022E-16 0 -1.92087022E-16  
RT 126 0 1.00000000E+00  
GPC 0 126 POLY(3)  121 0 113 0 114 0 0 0 0 0 0 0.00000000E+00 0.00000000E+00  
R1A 127 0 2.14285714E+03  
RZ1A 127 128 -1.14285714E+03  
C1A 128 0 7.95798186E-13  
GINA 0 127 126 0 4.66666667E-04   
R2A 129 0 2.25000000E+03  
RZ2A 129 130 -1.25000000E+03  
C2A 130 0 3.18319274E-13  
G2A 0 129 127 0 4.44444444E-04  
GOUTA 106 0 129 0 -1.00000000E+00  
GRD 104 0 106 0 1.02164070E+01  
G2P 0 106 POLY(2)  113 0 114 0 0 3.46573590E-07     3.46573590E-07  
GRDP 104 0 POLY(2)  113 0 114 0 0 -5.10970951E+00     -5.10970951E+00  
R2 106 0 1.44269504E+06  
CC 106 104 1.00000000E-14  
RD 104 0 3.32000000E+02  
RA 104 109 8.00000000E+00  
DH 104 100 DH 1.00000000E+00  
DL 131 104 DL 1.00000000E+00  
.MODEL DH D  IS=2.16387643E-14 N=.2 
.MODEL DL D  IS=6.45488179E-15 N=.2 
ECC 100 0 POLY(2)  113 0 132 0 -1.10000000E+00 1 1  
EEE 131 0 POLY(2)  114 0 133 0 1.13500000E+00 1 1  
FCC 0 132 POLY(1)  VMI  -1.30520000E-04  1.30000000E-01  
RCC 132 0 1K  
CRC 132 0 1.00000000E-10  
D55 132 0 DLIMVO  
FEE 0 133 POLY(1)  VMI  2.19120000E-04  2.20000000E-01  
REE 133 0 1K  
CRE 133 0 1.00000000E-10  
D66 0 133 DLIMVO  
.MODEL DLIMVO D N=.01 IS=1E-20 
DP 104 134 DCL 1.00000000E+00  
EXP 134 0 POLY(2)  104 0 109 0 0 -1.75393075E-01  1.17421768E+00  
DN 107 104 DCL 1.00000000E+00  
EXN 107 0 POLY(2)  104 0 109 0 0 8.82115687E-02   9.09643047E-01  
.MODEL DCL D  IS=1E-9  N=1 
IPS 113 114 5.78000000E-03  
GPS 135 0 104 109 1.25000000E-01  
GH 113 135 POLY(1)  135 114 1.52098765E-02  -3.04197531E-02 2.28148148E-02 
+ -7.60493827E-03 9.50617284E-04  
DPS 135 114 DPS  
.MODEL DPS D IS=1E-16   N=3.40657494E+00 
GEN 0 136 POLY(3)  113 0 113 0 114 0 4.00000000E+00  1.00000000E+00  
+ -1.00000000E+00  0.00000000E+00  
DEH 136 121 DLIM  
REH 121 0 1K  
DE1 121 137 DLIM  
VO1 137 0 0.99  
DEL 0 136 DLIM  
.MODEL DLIM D N=.01 IS=1E-20 
GRM 102 116 POLY(2)  102 116 121 0 0 0 0 0 1.42857143E+01  
GMI2 126 0 POLY(2)  104 0 121 0 0 2.04356846E-10 0 0 -2.04356846E-10  
GOR 0 138 POLY(3)  109 0 115 0 121 0 -6.40000000E-01 0 0 1.28000000E+00 1  -2 0 1  
DOH 138 139 DLIM  
ROH 139 0 1K  
DO1 139 137 DLIM  
DOL 0 138 DLIM  
GRO 109 115 POLY(2)  109 115 139 0 0 0 0 0 1.25000000E+01  
GCR 0 140 POLY(3)  0 140 121 0 104 109 0 0 0 1.25000000E+01 0 100  
DCH 140 141 DLIM  
RCH 141 0 8.00000000E+04  
DC1 141 137 DLIM  
DCL 142 140 DLIM  
RCL 142 0 8.00000000E+04  
DC2 143 142 DLIM  
VC2 0 143 0.99  
GMI3 126 0 POLY(3)  121 0 141 0 0 142 0 0 -1.10000000E-08   1.60000000E-08 0 
+ 1.10000000E-08   -1.60000000E-08  
.ENDS 
************
*SRC=HA5024;HA5024;Opamps;Harris;
*SYM=ADOPAMP
*
* Copyright (C) 1996 Harris Corp.
* All Rights Reserved
*
* HA5024 Macro Model
* Rev. 7/17/96
*
* Subcircuit Call Order: +IN -IN Vcc Vee Out Enable
*
* (Note:This subciruit models only 1 amplifier of the package, so the Icc is
* set to 1/4 the total HA5024 Icc)
*
.SUBCKT HA5024 101 111 113 114 112 110  
LAO 115 112 250N  
RAO 115 112 125  
CAO 112 0 4P  
LAI 116 111 40N  
RAI 116 111 200  
CAI 116 111 3P  
CPI 111 0 1.5P  
CPF 112 111 2.5P  
.MODEL QIP PNP IS=1.0E-16 BF=130 NF=2.2 
.MODEL QIM NPN IS=1.0E-16 BF=220 NF=2.5 
.MODEL QOP NPN IS=1.0E-16 BF=180 NF=2.2 
.MODEL QOM PNP IS=1.1E-16 BF=50 NF=2.5 
ROP 113 117 3.50000000E+02  
QOP 117 118 119 QOP  
CIP2 120 118 2.73661972E-13  
CIP 113 118 6.70000000E-13  
DIP 118 113 DLIM  
GIP 113 118 121 0 3.35000000E-04  
DIPL 114 118 DLIM  
QIP 114 120 118 QIP  
RIN 101 120 280  
CIN2 101 0 .03P  
RIG 101 0 2.60000000E+07  
CIN 120 0 .5PF  
QIM 113 120 122 QIM  
GIM 122 114 121 0 3.35000000E-04  
DIML 122 113 DLIM  
DIM 114 122 DLIM  
CIM 122 114 6.29914530E-13  
CIM2 120 122 3.24501425E-13  
QOM 123 122 119 QOM  
ROM 123 114 3.50000000E+02  
.MODEL DLIM2 D N=.01 IS=1E-10 
RE1 110 124 15K  
RE2 124 113 15K  
DEN 124 113 DEN  
.MODEL DEN D  BV=5.26 IBV=1.0E-10 
VMI 102 108 0.00000000E+00  
EVC 119 108 POLY(4)  101 0 102 0 113 0 114 0 -2.13000009E-03 3.09210000E-04   
+ 3.09210000E-04 -3.15209991E-04 -3.03210009E-04 0 0 -1.88100000E-06   
+ 1.88100000E-06 0 -1.88100000E-06 1.88100000E-06 1.88100000E-06 0   
+ -1.88100000E-06  
CMI 102 0 1.00000000E-16  
HITV 0 125 VMI 1  
RITV 125 0 1  
GII 0 126 POLY(2)  121 0 125 0 0 0 0 0 -1.97000000E-03  
GCC 0 126 POLY(5)  121 0 101 0 102 0 113 0 114 0 0 7.80927711E-09 0 0 0 0 0   
+ 2.78640749E-11 2.78640749E-11 3.49558407E-11 2.07723091E-11 0 0 0 0 0   0 
+ 0 0 0 0 0 0 0 0 0 0 0 -1.92087022E-16 1.92087022E-16 0 -1.92087022E-16   
+ 1.92087022E-16 1.92087022E-16 0 -1.92087022E-16  
RT 126 0 1.00000000E+00  
GPC 0 126 POLY(3)  121 0 113 0 114 0 0 0 0 0 0 0.00000000E+00 0.00000000E+00  
R1A 127 0 2.14285714E+03  
RZ1A 127 128 -1.14285714E+03  
C1A 128 0 7.95798186E-13  
GINA 0 127 126 0 4.66666667E-04   
R2A 129 0 2.25000000E+03  
RZ2A 129 130 -1.25000000E+03  
C2A 130 0 3.18319274E-13  
G2A 0 129 127 0 4.44444444E-04  
GOUTA 106 0 129 0 -1.00000000E+00  
GRD 104 0 106 0 1.02164070E+01  
G2P 0 106 POLY(2)  113 0 114 0 0 3.46573590E-07     3.46573590E-07  
GRDP 104 0 POLY(2)  113 0 114 0 0 -5.10970951E+00     -5.10970951E+00  
R2 106 0 1.44269504E+06  
CC 106 104 1.00000000E-14  
RD 104 0 3.32000000E+02  
RA 104 109 8.00000000E+00  
DH 104 100 DH 1.00000000E+00  
DL 131 104 DL 1.00000000E+00  
.MODEL DH D  IS=2.16387643E-14 N=.2 
.MODEL DL D  IS=6.45488179E-15 N=.2 
ECC 100 0 POLY(2)  113 0 132 0 -1.10000000E+00 1 1  
EEE 131 0 POLY(2)  114 0 133 0 1.13500000E+00 1 1  
FCC 0 132 POLY(1)  VMI  -1.30520000E-04  1.30000000E-01  
RCC 132 0 1K  
CRC 132 0 1.00000000E-10  
D55 132 0 DLIMVO  
FEE 0 133 POLY(1)  VMI  2.19120000E-04  2.20000000E-01  
REE 133 0 1K  
CRE 133 0 1.00000000E-10  
D66 0 133 DLIMVO  
.MODEL DLIMVO D N=.01 IS=1E-20 
DP 104 134 DCL 1.00000000E+00  
EXP 134 0 POLY(2)  104 0 109 0 0 -1.75393075E-01  1.17421768E+00  
DN 107 104 DCL 1.00000000E+00  
EXN 107 0 POLY(2)  104 0 109 0 0 8.82115687E-02   9.09643047E-01  
.MODEL DCL D  IS=1E-9  N=1 
IPS 113 114 5.78000000E-03  
GPS 135 0 104 109 1.25000000E-01  
GH 113 135 POLY(1)  135 114 1.52098765E-02  -3.04197531E-02 2.28148148E-02 
+ -7.60493827E-03 9.50617284E-04  
DPS 135 114 DPS  
.MODEL DPS D IS=1E-16   N=3.40657494E+00 
GEN 0 136 POLY(3)  110 0 113 0 114 0 4.00000000E+00  1.00000000E+00  
+ -1.00000000E+00  0.00000000E+00  
DEH 136 121 DLIM  
REH 121 0 1K  
DE1 121 137 DLIM  
VO1 137 0 0.99  
DEL 0 136 DLIM  
.MODEL DLIM D N=.01 IS=1E-20 
GRM 102 116 POLY(2)  102 116 121 0 0 0 0 0 1.42857143E+01  
GMI2 126 0 POLY(2)  104 0 121 0 0 2.04356846E-10 0 0 -2.04356846E-10  
GOR 0 138 POLY(3)  109 0 115 0 121 0 -6.40000000E-01 0 0 1.28000000E+00 1  -2 0 1  
DOH 138 139 DLIM  
ROH 139 0 1K  
DO1 139 137 DLIM  
DOL 0 138 DLIM  
GRO 109 115 POLY(2)  109 115 139 0 0 0 0 0 1.25000000E+01  
GCR 0 140 POLY(3)  0 140 121 0 104 109 0 0 0 1.25000000E+01 0 100  
DCH 140 141 DLIM  
RCH 141 0 8.00000000E+04  
DC1 141 137 DLIM  
DCL 142 140 DLIM  
RCL 142 0 8.00000000E+04  
DC2 143 142 DLIM  
VC2 0 143 0.99  
GMI3 126 0 POLY(3)  121 0 141 0 0 142 0 0 -1.10000000E-08   1.60000000E-08 0 
+ 1.10000000E-08   -1.60000000E-08  
.ENDS 
***********
*SRC=HA5025;HA5025;Opamps;Harris;
*SYM=ADOPAMP
*
* HA5025 Macro Model
* Rev. 7/17/96
*
* Subcircuit Call Order: +IN -IN Vcc Vee Out
*
* (Note:This subciruit models only 1 amplifier of the package, so the Icc is
* set to 1/4 the total HA5025 Icc)
*
.SUBCKT HA5025 101 111 113 114 112  
LAO 115 112 250N  
RAO 115 112 125  
CAO 112 0 4P  
LAI 116 111 40N  
RAI 116 111 200  
CAI 116 111 3P  
CPI 111 0 1.5P  
CPF 112 111 2.5P  
.MODEL QIP PNP IS=1.0E-16 BF=130 NF=2.2 
.MODEL QIM NPN IS=1.0E-16 BF=220 NF=2.5 
.MODEL QOP NPN IS=1.0E-16 BF=180 NF=2.2 
.MODEL QOM PNP IS=1.1E-16 BF=50 NF=2.5 
ROP 113 117 3.50000000E+02  
QOP 117 118 119 QOP  
CIP2 120 118 2.73661972E-13  
CIP 113 118 6.70000000E-13  
DIP 118 113 DLIM  
GIP 113 118 121 0 3.35000000E-04  
DIPL 114 118 DLIM  
QIP 114 120 118 QIP  
RIN 101 120 280  
CIN2 101 0 .03P  
RIG 101 0 2.60000000E+07  
CIN 120 0 .5PF  
QIM 113 120 122 QIM  
GIM 122 114 121 0 3.35000000E-04  
DIML 122 113 DLIM  
DIM 114 122 DLIM  
CIM 122 114 6.29914530E-13  
CIM2 120 122 3.24501425E-13  
QOM 123 122 119 QOM  
ROM 123 114 3.50000000E+02  
.MODEL DLIM2 D N=.01 IS=1E-10 
RE1 113 124 15K  
DEN 124 113 DEN  
.MODEL DEN D  BV=5.26 IBV=1.0E-10 
VMI 102 108 0.00000000E+00  
EVC 119 108 POLY(4)  101 0 102 0 113 0 114 0 -2.13000009E-03 3.09210000E-04   
+ 3.09210000E-04 -3.15209991E-04 -3.03210009E-04 0 0 -1.88100000E-06   
+ 1.88100000E-06 0 -1.88100000E-06 1.88100000E-06 1.88100000E-06 0   
+ -1.88100000E-06  
CMI 102 0 1.00000000E-16  
HITV 0 125 VMI 1  
RITV 125 0 1  
GII 0 126 POLY(2)  121 0 125 0 0 0 0 0 -1.97000000E-03  
GCC 0 126 POLY(5)  121 0 101 0 102 0 113 0 114 0 0 7.80927711E-09 0 0 0 0 0   
+ 2.78640749E-11 2.78640749E-11 3.49558407E-11 2.07723091E-11 0 0 0 0 0   0 
+ 0 0 0 0 0 0 0 0 0 0 0 -1.92087022E-16 1.92087022E-16 0 -1.92087022E-16   
+ 1.92087022E-16 1.92087022E-16 0 -1.92087022E-16  
RT 126 0 1.00000000E+00  
GPC 0 126 POLY(3)  121 0 113 0 114 0 0 0 0 0 0 0.00000000E+00 0.00000000E+00  
R1A 127 0 2.14285714E+03  
RZ1A 127 128 -1.14285714E+03  
C1A 128 0 7.95798186E-13  
GINA 0 127 126 0 4.66666667E-04   
R2A 129 0 2.25000000E+03  
RZ2A 129 130 -1.25000000E+03  
C2A 130 0 3.18319274E-13  
G2A 0 129 127 0 4.44444444E-04  
GOUTA 106 0 129 0 -1.00000000E+00  
GRD 104 0 106 0 1.02164070E+01  
G2P 0 106 POLY(2)  113 0 114 0 0 3.46573590E-07     3.46573590E-07  
GRDP 104 0 POLY(2)  113 0 114 0 0 -5.10970951E+00     -5.10970951E+00  
R2 106 0 1.44269504E+06  
CC 106 104 1.00000000E-14  
RD 104 0 3.32000000E+02  
RA 104 109 8.00000000E+00  
DH 104 100 DH 1.00000000E+00  
DL 131 104 DL 1.00000000E+00  
.MODEL DH D  IS=2.16387643E-14 N=.2 
.MODEL DL D  IS=6.45488179E-15 N=.2 
ECC 100 0 POLY(2)  113 0 132 0 -1.10000000E+00 1 1  
EEE 131 0 POLY(2)  114 0 133 0 1.13500000E+00 1 1  
FCC 0 132 POLY(1)  VMI  -1.30520000E-04  1.30000000E-01  
RCC 132 0 1K  
CRC 132 0 1.00000000E-10  
D55 132 0 DLIMVO  
FEE 0 133 POLY(1)  VMI  2.19120000E-04  2.20000000E-01  
REE 133 0 1K  
CRE 133 0 1.00000000E-10  
D66 0 133 DLIMVO  
.MODEL DLIMVO D N=.01 IS=1E-20 
DP 104 134 DCL 1.00000000E+00  
EXP 134 0 POLY(2)  104 0 109 0 0 -1.75393075E-01  1.17421768E+00  
DN 107 104 DCL 1.00000000E+00  
EXN 107 0 POLY(2)  104 0 109 0 0 8.82115687E-02   9.09643047E-01  
.MODEL DCL D  IS=1E-9  N=1 
IPS 113 114 5.78000000E-03  
GPS 135 0 104 109 1.25000000E-01  
GH 113 135 POLY(1)  135 114 1.52098765E-02  -3.04197531E-02 2.28148148E-02 
+ -7.60493827E-03 9.50617284E-04  
DPS 135 114 DPS  
.MODEL DPS D IS=1E-16   N=3.40657494E+00 
GEN 0 136 POLY(3)  113 0 113 0 114 0 4.00000000E+00  1.00000000E+00  
+ -1.00000000E+00  0.00000000E+00  
DEH 136 121 DLIM  
REH 121 0 1K  
DE1 121 137 DLIM  
VO1 137 0 0.99  
DEL 0 136 DLIM  
.MODEL DLIM D N=.01 IS=1E-20 
GRM 102 116 POLY(2)  102 116 121 0 0 0 0 0 1.42857143E+01  
GMI2 126 0 POLY(2)  104 0 121 0 0 2.04356846E-10 0 0 -2.04356846E-10  
GOR 0 138 POLY(3)  109 0 115 0 121 0 -6.40000000E-01 0 0 1.28000000E+00 1  -2 0 1  
DOH 138 139 DLIM  
ROH 139 0 1K  
DO1 139 137 DLIM  
DOL 0 138 DLIM  
GRO 109 115 POLY(2)  109 115 139 0 0 0 0 0 1.25000000E+01  
GCR 0 140 POLY(3)  0 140 121 0 104 109 0 0 0 1.25000000E+01 0 100  
DCH 140 141 DLIM  
RCH 141 0 8.00000000E+04  
DC1 141 137 DLIM  
DCL 142 140 DLIM  
RCL 142 0 8.00000000E+04  
DC2 143 142 DLIM  
VC2 0 143 0.99  
GMI3 126 0 POLY(3)  121 0 141 0 0 142 0 0 -1.10000000E-08   1.60000000E-08 0 
+ 1.10000000E-08   -1.60000000E-08  
.ENDS 
***********
*SRC=HA5013;HA5013;Opamps;Harris;
*SYM=ADOPAMP
*
* HA5013 Macro Model
* Rev. 7/17/96
*
* Subcircuit Call Order: +IN -IN Vcc Vee Out
*
* (Note:This subciruit models only 1 amplifier of the package, so the Icc is
* set to 1/3 the total HA5013 Icc)
*
.SUBCKT HA5013 101 111 113 114 112  
LAO 115 112 250N  
RAO 115 112 125  
CAO 112 0 4P  
LAI 116 111 40N  
RAI 116 111 200  
CAI 116 111 3P  
CPI 111 0 1.5P  
CPF 112 111 2.5P  
.MODEL QIP PNP IS=1.0E-16 BF=130 NF=2.2 
.MODEL QIM NPN IS=1.0E-16 BF=220 NF=2.5 
.MODEL QOP NPN IS=1.0E-16 BF=180 NF=2.2 
.MODEL QOM PNP IS=1.1E-16 BF=50 NF=2.5 
ROP 113 117 3.50000000E+02  
QOP 117 118 119 QOP  
CIP2 120 118 2.73661972E-13  
CIP 113 118 6.70000000E-13  
DIP 118 113 DLIM  
GIP 113 118 121 0 3.35000000E-04  
DIPL 114 118 DLIM  
QIP 114 120 118 QIP  
RIN 101 120 280  
CIN2 101 0 .03P  
RIG 101 0 2.60000000E+07  
CIN 120 0 .5PF  
QIM 113 120 122 QIM  
GIM 122 114 121 0 3.35000000E-04  
DIML 122 113 DLIM  
DIM 114 122 DLIM  
CIM 122 114 6.29914530E-13  
CIM2 120 122 3.24501425E-13  
QOM 123 122 119 QOM  
ROM 123 114 3.50000000E+02  
.MODEL DLIM2 D N=.01 IS=1E-10 
RE1 113 124 15K  
DEN 124 113 DEN  
.MODEL DEN D  BV=5.26 IBV=1.0E-10 
VMI 102 108 0.00000000E+00  
EVC 119 108 POLY(4) 101 0 102 0 113 0 114 0 -2.13000009E-03 3.09210000E-04   
+ 3.09210000E-04 -3.15209991E-04 -3.03210009E-04 0 0 -1.88100000E-06   
+ 1.88100000E-06 0 -1.88100000E-06 1.88100000E-06 1.88100000E-06 0   
+ -1.88100000E-06  
CMI 102 0 1.00000000E-16  
HITV 0 125 VMI 1  
RITV 125 0 1  
GII 0 126 POLY(2) 121 0 125 0 0 0 0 0 -1.97000000E-03  
GCC 0 126 POLY(5) 121 0 101 0 102 0 113 0 114 0 0 7.80927711E-09 0 0 0 0 0   
+ 2.78640749E-11 2.78640749E-11 3.49558407E-11 2.07723091E-11 0 0 0 0 0   0 
+ 0 0 0 0 0 0 0 0 0 0 0 -1.92087022E-16 1.92087022E-16 0 -1.92087022E-16   
+ 1.92087022E-16 1.92087022E-16 0 -1.92087022E-16  
RT 126 0 1.00000000E+00  
GPC 0 126 POLY(3) 121 0 113 0 114 0 0 0 0 0 0 0.00000000E+00 0.00000000E+00  
R1A 127 0 2.14285714E+03  
RZ1A 127 128 -1.14285714E+03  
C1A 128 0 7.95798186E-13  