* CA158 operational amplifier "macromodel" subcircuit
*
* connections:   non-inverting input
*                | inverting input
*                | | positive power supply
*                | | | negative power supply
*                | | | | output
*                | | | | |
.subckt CA158_HA    1 2 3 4 5
*
  c1   11 12 15.00E-12
  c2    6  7 30.00E-12
  dc    5 53 dx
  de   54  5 dx
  dlp  90 91 dx
  dln  92 90 dx
  dp    4  3 dx
  egnd 99  0 poly 2 3 0 4 0 0 0.5 0.5
  fb    7 99 poly 5 vb vc ve vlp vln 0 21.22E6 -21E6 21E6 21E6 -21E6
  ga    6  0 11 12 188.5E-6
  gcm   0  6 10 99 10.60E-9
  iee  10  4 dc 15.04E-6
  hlim 90  0 vlim 1K
  q1   11  2 13 qx
  q2   12  1 14 qx2
  r2    6  9 100.0E3
  rc1   3 11 5.305E3
  rc2   3 12 5.305E3
  re1  13 10 1.852E3
  re2  14 10 1.852E3
  ree  10 99 13.30E6
  ro1   8  5 50
  ro2   7 99 25
  rp    3  4 20.20E3
  vb    9  0 dc 0
  vc    3 53 dc 1.500
  ve   54  4 dc .1
  vlim  7  8 dc 0
  vlp  91  0 dc 30
  vln   0 92 dc 30
.model dx D Is=800.0E-18
.model qx NPN Is=800.0E-18 Bf=375
.model qx2 NPN Is=830.70E-18 Bf=375
.ends ca158_HA
*$

* CA3086/CA3018 NPN model
.MODEL CA3086 NPN
+ IS=10.000E-15
+ BF=156.66
+ VAF=100
+ IKF=36.783E-3
+ ISE=114.82E-15
+ NE=1.4743
+ BR=.1001
+ VAR=100
+ IKR=10.010E-3
+ ISC=10.000E-15
+ RC=10
+ CJE=1.0260E-12
+ MJE=.33333
+ CJC=991.79E-15
+ MJC=.33333
+ TF=278.55E-12
+ XTF=91.905
+ VTF=18.899
+ ITF=.77631
+ TR=10.000E-9
*$
* CA3046 NPN model
.MODEL CA3046 NPN
+ IS=10.000E-15
+ BF=145.76
+ VAF=100
+ IKF=46.747E-3
+ ISE=114.23E-15
+ NE=1.4830
+ BR=.1001
+ VAR=100
+ IKR=10.010E-3
+ ISC=10.000E-15
+ RC=10
+ CJE=1.0260E-12
+ MJE=.33333
+ CJC=991.79E-15
+ MJC=.33333
+ TF=277.09E-12
+ XTF=309.38
+ VTF=16.364
+ ITF=1.7597
+ TR=10.000E-9
*$
* CA3083 NPN model
.MODEL CA3083 NPN
+ IS=10.000E-15
+ BF=112.82
+ VAF=100
+ IKF=.12091
+ ISE=99.047E-15
+ NE=1.4169
+ BR=16.076
+ VAR=100
+ IKR=29.844E-3
+ ISC=116.12E-15
+ NC=1.7076
+ RC=10
+ CJE=1.0260E-12
+ MJE=.33333
+ CJC=991.79E-15
+ MJC=.33333
+ TF=275.05E-12
+ XTF=91.993
+ VTF=18.982
+ ITF=.37511
+ TR=10.000E-9
*$
* HA4741 operational amplifier "macromodel" subcircuit
* created using Parts release 6.3a, Parts is a MicroSim product.
* Rev: 8/28/97
*
* connections:   non-inverting input
*                | inverting input
*                | | positive power supply
*                | | | negative power supply
*                | | | | output
*                | | | | |
.subckt HA4741_HA   1 2 3 4 5
*
  c1   11 12 15.00E-12
  c2    6  7 30.00E-12
  dc    5 53 dx
  de   54  5 dx
  dlp  90 91 dx
  dln  92 90 dx
  dp    4  3 dx
  egnd 99  0 poly 2 3 0 4 0 0 0.5 0.5
  fb    7 99 poly 5 vb vc ve vlp vln 0 17.04E6 -17E6 17E6 17E6 -17E6
  ga    6  0 11 12 659.7E-6
  gcm   0  6 10 99 20.88E-9
  iee  10  4 dc 48.12E-6
  hlim 90  0 vlim 1K
  q1   11  2 13 qx
  q2   12  1 14 qx2
  r2    6  9 100.0E3
  rc1   3 11 1.516E3
  rc2   3 12 1.516E3
  re1  13 10 437
  re2  14 10 437
  ree  10 99 4.156E6
  ro1   8  5 50
  ro2   7 99 25
  rp    3  4 6.739E3
  vb    9  0 dc 0
  vc    3 53 dc 1.300
  ve   54  4 dc 1.300
  vlim  7  8 dc 0
  vlp  91  0 dc 15
  vln   0 92 dc 15
.model dx D Is=800.0E-18
.model qx NPN Is=800.0E-18 Bf=400
.model qx2 NPN Is=815.5E-18 Bf=400
.ends ha4741_HA
*$* CA3096N NPN model
.MODEL CA3096N NPN
+ IS=10.000E-15
+ BF=466.52
+ VAF=100
+ IKF=14.030E-3
+ ISE=74.093E-15
+ NE=1.6606
+ BR=.1001
+ VAR=100
+ IKR=10.010E-3
+ ISC=10.000E-15
+ NK=.46898
+ RC=10
+ CJE=1.2825E-12
+ MJE=.33333
+ CJC=786.59E-15
+ MJC=.33333
+ TF=490.39E-12
+ XTF=5.3212
+ VTF=28.396
+ ITF=.27408
+ TR=10.000E-9
*$




* CA3096P PNP model
.MODEL CA3096P PNP
+ IS=10.000E-15
+ BF=94.511
+ VAF=100
+ IKF=1.1177E-3
+ ISE=976.47E-15
+ NE=1.9980
+ BR=.1001
+ VAR=100
+ IKR=10.010E-3
+ ISC=10.000E-15
+ NK=.53243
+ CJE=1.4535E-12
+ MJE=.33333
+ CJC=3.8474E-12
+ MJC=.33333
+ TF=24.300E-9
+ XTF=10.054
+ VTF=9.7920
+ ITF=1.2571
+ TR=10.000E-9
*$
* CA3127 NPN model
.MODEL CA3127 NPN
+ IS=3.2168E-12
+ BF=95.245
+ VAF=100
+ IKF=61.522E-3
+ ISE=20.480E-12
+ NE=1.9984
+ BR=.1001
+ VAR=100
+ IKR=10.010E-3
+ ISC=10.805E-9
+ RC=10
+ CJE=651.92E-15
+ MJE=.33697
+ CJC=281.16E-15
+ MJC=.13865
+ TF=122.68E-12
+ XTF=2.0529E3
+ VTF=307.73
+ ITF=1.6076
+ TR=10.000E-9
*$
*
* Copyright (C) 1996 Harris Corp.
* All Rights Reserved
*
* HA5013 Macro Model
* Rev. 7/17/96
*
* Subcircuit Call Order: +IN -IN Vcc Vee Out
*
* (Note:This subciruit models only 1 amplifier of the package, so the Icc is
* set to 1/3 the total HA5013 Icc)
*
.SUBCKT HA5013_HA 101 111 113 114 112
LAO 115 112 250N
RAO 115 112 125
CAO 112 0 4P
LAI 116 111 40N
RAI 116 111 200
CAI 116 111 3P
CPI 111 0 1.5P
CPF 112 111 2.5P
.MODEL QIP PNP IS=1.0E-16 BF=130 NF=2.2
.MODEL QIM NPN IS=1.0E-16 BF=220 NF=2.5
.MODEL QOP NPN IS=1.0E-16 BF=180 NF=2.2
.MODEL QOM PNP IS=1.1E-16 BF=50 NF=2.5
ROP 113 117 +3.50000000E+02
QOP 117 118 119 QOP
CIP2 120 118 +2.73661972E-13
CIP 113 118 +6.70000000E-13
DIP 118 113 DLIM
GIP 113 118 121 0 +3.35000000E-04
DIPL 114 118 DLIM
QIP 114 120 118 QIP
RIN 101 120 280
CIN2 101 0 .03P
RIG 101 0 +2.60000000E+07
CIN 120 0 .5PF
QIM 113 120 122 QIM
GIM 122 114 121 0 +3.35000000E-04
DIML 122 113 DLIM
DIM 114 122 DLIM
CIM 122 114 +6.29914530E-13
CIM2 120 122 +3.24501425E-13
QOM 123 122 119 QOM
ROM 123 114 +3.50000000E+02
.MODEL DLIM2 D N=.01 IS=1E-10
RE1 113 124 15K
DEN 124 113 DEN
.MODEL DEN D  BV=+5.26 IBV=1.0E-10
VMI 102 108 +0.00000000E+00
EVC 119 108 POLY 4  101 0 102 0 113 0 114 0 -2.13000009E-03 +3.09210000E-04
++3.09210000E-04 -3.15209991E-04 -3.03210009E-04 0 0 -1.88100000E-06
++1.88100000E-06 0 -1.88100000E-06 +1.88100000E-06 +1.88100000E-06 0
+-1.88100000E-06
CMI 102 0 +1.00000000E-16
HITV 0 125 VMI 1
RITV 125 0 1
GII 0 126 POLY 2  121 0 125 0 0 0 0 0 -1.97000000E-03
GCC 0 126 POLY 5  121 0 101 0 102 0 113 0 114 0 0 +7.80927711E-09 0 0 0 0 0
++2.78640749E-11 +2.78640749E-11 +3.49558407E-11 +2.07723091E-11 0 0 0 0 0   0
+0 0 0 0 0 0 0 0 0 0 0 -1.92087022E-16 +1.92087022E-16 0 -1.92087022E-16
++1.92087022E-16 +1.92087022E-16 0 -1.92087022E-16
RT 126 0 +1.00000000E+00
GPC 0 126 POLY 3  121 0 113 0 114 0 0 0 0 0 0 +0.00000000E+00 +0.00000000E+00
R1A 127 0 +2.14285714E+03
RZ1A 127 128 -1.14285714E+03
C1A 128 0 +7.95798186E-13
GINA 0 127 126 0 +4.66666667E-04
R2A 129 0 +2.25000000E+03
RZ2A 129 130 -1.25000000E+03
C2A 130 0 +3.18319274E-13
G2A 0 129 127 0 +4.44444444E-04
GOUTA 106 0 129 0 -1.00000000E+00
GRD 104 0 106 0 +1.02164070E+01
G2P 0 106 POLY 2  113 0 114 0 0 +3.46573590E-07     +3.46573590E-07
GRDP 104 0 POLY 2  113 0 114 0 0 -5.10970951E+00     -5.10970951E+00
R2 106 0 +1.44269504E+06
CC 106 104 +1.00000000E-14
RD 104 0 +3.32000000E+02
RA 104 109 +8.00000000E+00
DH 104 100 DH +1.00000000E+00
DL 131 104 DL +1.00000000E+00
.MODEL DH D  IS=+2.16387643E-14 N=.2
.MODEL DL D  IS=+6.45488179E-15 N=.2
ECC 100 0 POLY 2  113 0 132 0 -1.10000000E+00 1 1
EEE 131 0 POLY 2  114 0 133 0 +1.13500000E+00 1 1
FCC 0 132 POLY 1  VMI  -1.30520000E-04  +1.30000000E-01
RCC 132 0 1K
CRC 132 0 +1.00000000E-10
D55 132 0 DLIMVO
FEE 0 133 POLY 1  VMI  +2.19120000E-04  +2.20000000E-01
REE 133 0 1K
CRE 133 0 +1.00000000E-10
D66 0 133 DLIMVO
 .MODEL DLIMVO D N=.01 IS=1E-20
DP 104 134 DCL +1.00000000E+00
EXP 134 0 POLY 2  104 0 109 0 0 -1.75393075E-01  +1.17421768E+00
DN 107 104 DCL +1.00000000E+00
EXN 107 0 POLY 2  104 0 109 0 0 +8.82115687E-02   +9.09643047E-01
 .MODEL DCL D  IS=1E-9  N=1
IPS 113 114 +5.78000000E-03
GPS 135 0 104 109 +1.25000000E-01
GH 113 135 POLY 1  135 114 +1.52098765E-02  -3.04197531E-02 +2.28148148E-02
+-7.60493827E-03 +9.50617284E-04
DPS 135 114 DPS
 .MODEL DPS D IS=1E-16   N=+3.40657494E+00
GEN 0 136 POLY 3  113 0 113 0 114 0 +4.00000000E+00  +1.00000000E+00
+-1.00000000E+00  +0.00000000E+00
DEH 136 121 DLIM
REH 121 0 1K
DE1 121 137 DLIM
VO1 137 0 0.99
DEL 0 136 DLIM
.MODEL DLIM D N=.01 IS=1E-20
GRM 102 116 POLY 2  102 116 121 0 0 0 0 0 +1.42857143E+01
GMI2 126 0 POLY 2  104 0 121 0 0 +2.04356846E-10 0 0 -2.04356846E-10
GOR 0 138 POLY 3  109 0 115 0 121 0 -6.40000000E-01 0 0 +1.28000000E+00 1  -2
+0 1
DOH 138 139 DLIM
ROH 139 0 1K
DO1 139 137 DLIM
DOL 0 138 DLIM
GRO 109 115 POLY 2  109 115 139 0 0 0 0 0 +1.25000000E+01
GCR 0 140 POLY 3  0 140 121 0 104 109 0 0 0 +1.25000000E+01 0 100
DCH 140 141 DLIM
RCH 141 0 +8.00000000E+04
DC1 141 137 DLIM
DCL 142 140 DLIM
RCL 142 0 +8.00000000E+04
DC2 143 142 DLIM
VC2 0 143 0.99
GMI3 126 0 POLY 3  121 0 141 0 0 142 0 0 -1.10000000E-08   +1.60000000E-08 0
++1.10000000E-08   -1.60000000E-08
.ENDS HA5013_HA
*
* Copyright (C) 1996 Harris Corp.
* All Rights Reserved
*
* HA5022 Macro Model
* Rev. 7/17/96
*
* Subcircuit Call Order: +IN -IN Vcc Vee Out Enable
*
* (Note:This subciruit models only 1 amplifier of the package, so the Icc is
* set to 1/2 the total HA5022 Icc)
*
.SUBCKT HA5022_HA 101 111 113 114 112 110
LAO 115 112 250N
RAO 115 112 125
CAO 112 0 4P
LAI 116 111 40N
RAI 116 111 200
CAI 116 111 3P
CPI 111 0 1.5P
CPF 112 111 2.5P
.MODEL QIP PNP IS=1.0E-16 BF=130 NF=2.2
.MODEL QIM NPN IS=1.0E-16 BF=220 NF=2.5
.MODEL QOP NPN IS=1.0E-16 BF=180 NF=2.2
.MODEL QOM PNP IS=1.1E-16 BF=50 NF=2.5
ROP 113 117 +3.50000000E+02
QOP 117 118 119 QOP
CIP2 120 118 +2.73661972E-13
CIP 113 118 +6.70000000E-13
DIP 118 113 DLIM
GIP 113 118 121 0 +3.35000000E-04
DIPL 114 118 DLIM
QIP 114 120 118 QIP
RIN 101 120 280
CIN2 101 0 .03P
RIG 101 0 +2.60000000E+07
CIN 120 0 .5PF
QIM 113 120 122 QIM
GIM 122 114 121 0 +3.35000000E-04
DIML 122 113 DLIM
DIM 114 122 DLIM
CIM 122 114 +6.29914530E-13
CIM2 120 122 +3.24501425E-13
QOM 123 122 119 QOM
ROM 123 114 +3.50000000E+02
.MODEL DLIM2 D N=.01 IS=1E-10
RE1 110 124 15K
RE2 124 113 15K
DEN 124 113 DEN
.MODEL DEN D  BV=+5.26 IBV=1.0E-10
VMI 102 108 +0.00000000E+00
EVC 119 108 POLY 4  101 0 102 0 113 0 114 0 -2.13000009E-03 +3.09210000E-04
++3.09210000E-04 -3.15209991E-04 -3.03210009E-04 0 0 -1.88100000E-06
++1.88100000E-06 0 -1.88100000E-06 +1.88100000E-06 +1.88100000E-06 0
+-1.88100000E-06
CMI 102 0 +1.00000000E-16
HITV 0 125 VMI 1
RITV 125 0 1
GII 0 126 POLY 2  121 0 125 0 0 0 0 0 -1.97000000E-03
GCC 0 126 POLY 5  121 0 101 0 102 0 113 0 114 0 0 +7.80927711E-09 0 0 0 0 0
++2.78640749E-11 +2.78640749E-11 +3.49558407E-11 +2.07723091E-11 0 0 0 0 0   0
+0 0 0 0 0 0 0 0 0 0 0 -1.92087022E-16 +1.92087022E-16 0 -1.92087022E-16
++1.92087022E-16 +1.92087022E-16 0 -1.92087022E-16
RT 126 0 +1.00000000E+00
GPC 0 126 POLY 3  121 0 113 0 114 0 0 0 0 0 0 +0.00000000E+00 +0.00000000E+00
R1A 127 0 +2.14285714E+03
RZ1A 127 128 -1.14285714E+03
C1A 128 0 +7.95798186E-13
GINA 0 127 126 0 +4.66666667E-04
R2A 129 0 +2.25000000E+03
RZ2A 129 130 -1.25000000E+03
C2A 130 0 +3.18319274E-13
G2A 0 129 127 0 +4.44444444E-04
GOUTA 106 0 129 0 -1.00000000E+00
GRD 104 0 106 0 +1.02164070E+01
G2P 0 106 POLY 2  113 0 114 0 0 +3.46573590E-07     +3.46573590E-07
GRDP 104 0 POLY 2  113 0 114 0 0 -5.10970951E+00     -5.10970951E+00
R2 106 0 +1.44269504E+06
CC 106 104 +1.00000000E-14
RD 104 0 +3.32000000E+02
RA 104 109 +8.00000000E+00
DH 104 100 DH +1.00000000E+00
DL 131 104 DL +1.00000000E+00
.MODEL DH D  IS=+2.16387643E-14 N=.2
.MODEL DL D  IS=+6.45488179E-15 N=.2
ECC 100 0 POLY 2  113 0 132 0 -1.10000000E+00 1 1
EEE 131 0 POLY 2  114 0 133 0 +1.13500000E+00 1 1
FCC 0 132 POLY 1  VMI  -1.30520000E-04  +1.30000000E-01
RCC 132 0 1K
CRC 132 0 +1.00000000E-10
D55 132 0 DLIMVO
FEE 0 133 POLY 1  VMI  +2.19120000E-04  +2.20000000E-01
REE 133 0 1K
CRE 133 0 +1.00000000E-10
D66 0 133 DLIMVO
 .MODEL DLIMVO D N=.01 IS=1E-20
DP 104 134 DCL +1.00000000E+00
EXP 134 0 POLY 2  104 0 109 0 0 -1.75393075E-01  +1.17421768E+00
DN 107 104 DCL +1.00000000E+00
EXN 107 0 POLY 2  104 0 109 0 0 +8.82115687E-02   +9.09643047E-01
 .MODEL DCL D  IS=1E-9  N=1
IPS 113 114 +5.78000000E-03
GPS 135 0 104 109 +1.25000000E-01
GH 113 135 POLY 1  135 114 +1.52098765E-02  -3.04197531E-02 +2.28148148E-02
+-7.60493827E-03 +9.50617284E-04
DPS 135 114 DPS
 .MODEL DPS D IS=1E-16   N=+3.40657494E+00
GEN 0 136 POLY 3  110 0 113 0 114 0 +4.00000000E+00  +1.00000000E+00
+-1.00000000E+00  +0.00000000E+00
DEH 136 121 DLIM
REH 121 0 1K
DE1 121 137 DLIM
VO1 137 0 0.99
DEL 0 136 DLIM
.MODEL DLIM D N=.01 IS=1E-20
GRM 102 116 POLY 2  102 116 121 0 0 0 0 0 +1.42857143E+01
GMI2 126 0 POLY 2  104 0 121 0 0 +2.04356846E-10 0 0 -2.04356846E-10
GOR 0 138 POLY 3  109 0 115 0 121 0 -6.40000000E-01 0 0 +1.28000000E+00 1  -2
+0 1
DOH 138 139 DLIM
ROH 139 0 1K
DO1 139 137 DLIM
DOL 0 138 DLIM
GRO 109 115 POLY 2  109 115 139 0 0 0 0 0 +1.25000000E+01
GCR 0 140 POLY 3  0 140 121 0 104 109 0 0 0 +1.25000000E+01 0 100
DCH 140 141 DLIM
RCH 141 0 +8.00000000E+04
DC1 141 137 DLIM
DCL 142 140 DLIM
RCL 142 0 +8.00000000E+04
DC2 143 142 DLIM
VC2 0 143 0.99
GMI3 126 0 POLY 3  121 0 141 0 0 142 0 0 -1.10000000E-08   +1.60000000E-08 0
++1.10000000E-08   -1.60000000E-08
.ENDS HA5022_HA
*
* Copyright (C) 1996 Harris Corp.
* All Rights Reserved
*
* HA5023 Macro Model
* Rev. 7/17/96
*
* Subcircuit Call Order: +IN -IN Vcc Vee Out
*
* (Note:This subciruit models only 1 amplifier of the package, so the Icc is
* set to 1/2 the total HA5023 Icc)
*
.SUBCKT HA5023_HA 101 111 113 114 112
LAO 115 112 250N
RAO 115 112 125
CAO 112 0 4P
LAI 116 111 40N
RAI 116 111 200
CAI 116 111 3P
CPI 111 0 1.5P
CPF 112 111 2.5P
.MODEL QIP PNP IS=1.0E-16 BF=130 NF=2.2
.MODEL QIM NPN IS=1.0E-16 BF=220 NF=2.5
.MODEL QOP NPN IS=1.0E-16 BF=180 NF=2.2
.MODEL QOM PNP IS=1.1E-16 BF=50 NF=2.5
ROP 113 117 +3.50000000E+02
QOP 117 118 119 QOP
CIP2 120 118 +2.73661972E-13
CIP 113 118 +6.70000000E-13
DIP 118 113 DLIM
GIP 113 118 121 0 +3.35000000E-04
DIPL 114 118 DLIM
QIP 114 120 118 QIP
RIN 101 120 280
CIN2 101 0 .03P
RIG 101 0 +2.60000000E+07
CIN 120 0 .5PF
QIM 113 120 122 QIM
GIM 122 114 121 0 +3.35000000E-04
DIML 122 113 DLIM
DIM 114 122 DLIM
CIM 122 114 +6.29914530E-13
CIM2 120 122 +3.24501425E-13
QOM 123 122 119 QOM
ROM 123 114 +3.50000000E+02
.MODEL DLIM2 D N=.01 IS=1E-10
RE1 113 124 15K
DEN 124 113 DEN
.MODEL DEN D  BV=+5.26 IBV=1.0E-10
VMI 102 108 +0.00000000E+00
EVC 119 108 POLY 4  101 0 102 0 113 0 114 0 -2.13000009E-03 +3.09210000E-04
++3.09210000E-04 -3.15209991E-04 -3.03210009E-04 0 0 -1.88100000E-06
++1.88100000E-06 0 -1.88100000E-06 +1.88100000E-06 +1.88100000E-06 0
+-1.88100000E-06
CMI 102 0 +1.00000000E-16
HITV 0 125 VMI 1
RITV 125 0 1
GII 0 126 POLY 2  121 0 125 0 0 0 0 0 -1.97000000E-03
GCC 0 126 POLY 5  121 0 101 0 102 0 113 0 114 0 0 +7.80927711E-09 0 0 0 0 0
++2.78640749E-11 +2.78640749E-11 +3.49558407E-11 +2.07723091E-11 0 0 0 0 0   0
+0 0 0 0 0 0 0 0 0 0 0 -1.92087022E-16 +1.92087022E-16 0 -1.92087022E-16
++1.92087022E-16 +1.92087022E-16 0 -1.92087022E-16
RT 126 0 +1.00000000E+00
GPC 0 126 POLY 3  121 0 113 0 114 0 0 0 0 0 0 +0.00000000E+00 +0.00000000E+00
R1A 127 0 +2.14285714E+03
RZ1A 127 128 -1.14285714E+03
C1A 128 0 +7.95798186E-13
GINA 0 127 126 0 +4.66666667E-04
R2A 129 0 +2.25000000E+03
RZ2A 129 130 -1.25000000E+03
C2A 130 0 +3.18319274E-13
G2A 0 129 127 0 +4.44444444E-04
GOUTA 106 0 129 0 -1.00000000E+00
GRD 104 0 106 0 +1.02164070E+01
G2P 0 106 POLY 2  113 0 114 0 0 +3.46573590E-07     +3.46573590E-07
GRDP 104 0 POLY 2  113 0 114 0 0 -5.10970951E+00     -5.10970951E+00
R2 106 0 +1.44269504E+06
CC 106 104 +1.00000000E-14
RD 104 0 +3.32000000E+02
RA 104 109 +8.00000000E+00
DH 104 100 DH +1.00000000E+00
DL 131 104 DL +1.00000000E+00
.MODEL DH D  IS=+2.16387643E-14 N=.2
.MODEL DL D  IS=+6.45488179E-15 N=.2
ECC 100 0 POLY 2  113 0 132 0 -1.10000000E+00 1 1
EEE 131 0 POLY 2  114 0 133 0 +1.13500000E+00 1 1
FCC 0 132 POLY 1  VMI  -1.30520000E-04  +1.30000000E-01
RCC 132 0 1K
CRC 132 0 +1.00000000E-10
D55 132 0 DLIMVO
FEE 0 133 POLY 1  VMI  +2.19120000E-04  +2.20000000E-01
REE 133 0 1K
CRE 133 0 +1.00000000E-10
D66 0 133 DLIMVO
 .MODEL DLIMVO D N=.01 IS=1E-20
DP 104 134 DCL +1.00000000E+00
EXP 134 0 POLY 2  104 0 109 0 0 -1.75393075E-01  +1.17421768E+00
DN 107 104 DCL +1.00000000E+00
EXN 107 0 POLY 2  104 0 109 0 0 +8.82115687E-02   +9.09643047E-01
 .MODEL DCL D  IS=1E-9  N=1
IPS 113 114 +5.78000000E-03
GPS 135 0 104 109 +1.25000000E-01
GH 113 135 POLY 1  135 114 +1.52098765E-02  -3.04197531E-02 +2.28148148E-02
+-7.60493827E-03 +9.50617284E-04
DPS 135 114 DPS
 .MODEL DPS D IS=1E-16   N=+3.40657494E+00
GEN 0 136 POLY 3  113 0 113 0 114 0 +4.00000000E+00  +1.00000000E+00
+-1.00000000E+00  +0.00000000E+00
DEH 136 121 DLIM
REH 121 0 1K
DE1 121 137 DLIM
VO1 137 0 0.99
DEL 0 136 DLIM
.MODEL DLIM D N=.01 IS=1E-20
GRM 102 116 POLY 2  102 116 121 0 0 0 0 0 +1.42857143E+01
GMI2 126 0 POLY 2  104 0 121 0 0 +2.04356846E-10 0 0 -2.04356846E-10
GOR 0 138 POLY 3  109 0 115 0 121 0 -6.40000000E-01 0 0 +1.28000000E+00 1  -2
+0 1
DOH 138 139 DLIM
ROH 139 0 1K
DO1 139 137 DLIM
DOL 0 138 DLIM
GRO 109 115 POLY 2  109 115 139 0 0 0 0 0 +1.25000000E+01
GCR 0 140 POLY 3  0 140 121 0 104 109 0 0 0 +1.25000000E+01 0 100
DCH 140 141 DLIM
RCH 141 0 +8.00000000E+04
DC1 141 137 DLIM
DCL 142 140 DLIM
RCL 142 0 +8.00000000E+04
DC2 143 142 DLIM
VC2 0 143 0.99
GMI3 126 0 POLY 3  121 0 141 0 0 142 0 0 -1.10000000E-08   +1.60000000E-08 0
++1.10000000E-08   -1.60000000E-08
.ENDS HA5023_HA
*
* Copyright (C) 1996 Harris Corp.
* All Rights Reserved
*
* HA5024 Macro Model
* Rev. 7/17/96
*
* Subcircuit Call Order: +IN -IN Vcc Vee Out Enable
*
* (Note:This subciruit models only 1 amplifier of the package, so the Icc is
* set to 1/4 the total HA5024 Icc)
*
.SUBCKT HA5024_HA 101 111 113 114 112 110
LAO 115 112 250N
RAO 115 112 125
CAO 112 0 4P
LAI 116 111 40N
RAI 116 111 200
CAI 116 111 3P
CPI 111 0 1.5P
CPF 112 111 2.5P
.MODEL QIP PNP IS=1.0E-16 BF=130 NF=2.2
.MODEL QIM NPN IS=1.0E-16 BF=220 NF=2.5
.MODEL QOP NPN IS=1.0E-16 BF=180 NF=2.2
.MODEL QOM PNP IS=1.1E-16 BF=50 NF=2.5
ROP 113 117 +3.50000000E+02
QOP 117 118 119 QOP
CIP2 120 118 +2.73661972E-13
CIP 113 118 +6.70000000E-13
DIP 118 113 DLIM
GIP 113 118 121 0 +3.35000000E-04
DIPL 114 118 DLIM
QIP 114 120 118 QIP
RIN 101 120 280
CIN2 101 0 .03P
RIG 101 0 +2.60000000E+07
CIN 120 0 .5PF
QIM 113 120 122 QIM
GIM 122 114 121 0 +3.35000000E-04
DIML 122 113 DLIM
DIM 114 122 DLIM
CIM 122 114 +6.29914530E-13
CIM2 120 122 +3.24501425E-13
QOM 123 122 119 QOM
ROM 123 114 +3.50000000E+02
.MODEL DLIM2 D N=.01 IS=1E-10
RE1 110 124 15K
RE2 124 113 15K
DEN 124 113 DEN
.MODEL DEN D  BV=+5.26 IBV=1.0E-10
VMI 102 108 +0.00000000E+00
EVC 119 108 POLY 4  101 0 102 0 113 0 114 0 -2.13000009E-03 +3.09210000E-04
++3.09210000E-04 -3.15209991E-04 -3.03210009E-04 0 0 -1.88100000E-06
++1.88100000E-06 0 -1.88100000E-06 +1.88100000E-06 +1.88100000E-06 0
+-1.88100000E-06
CMI 102 0 +1.00000000E-16
HITV 0 125 VMI 1
RITV 125 0 1
GII 0 126 POLY 2  121 0 125 0 0 0 0 0 -1.97000000E-03
GCC 0 126 POLY 5  121 0 101 0 102 0 113 0 114 0 0 +7.80927711E-09 0 0 0 0 0
++2.78640749E-11 +2.78640749E-11 +3.49558407E-11 +2.07723091E-11 0 0 0 0 0   0
+0 0 0 0 0 0 0 0 0 0 0 -1.92087022E-16 +1.92087022E-16 0 -1.92087022E-16
++1.92087022E-16 +1.92087022E-16 0 -1.92087022E-16
RT 126 0 +1.00000000E+00
GPC 0 126 POLY 3  121 0 113 0 114 0 0 0 0 0 0 +0.00000000E+00 +0.00000000E+00
R1A 127 0 +2.14285714E+03
RZ1A 127 128 -1.14285714E+03
C1A 128 0 +7.95798186E-13
GINA 0 127 126 0 +4.66666667E-04
R2A 129 0 +2.25000000E+03
RZ2A 129 130 -1.25000000E+03
C2A 130 0 +3.18319274E-13
G2A 0 129 127 0 +4.44444444E-04
GOUTA 106 0 129 0 -1.00000000E+00
GRD 104 0 106 0 +1.02164070E+01
G2P 0 106 POLY 2  113 0 114 0 0 +3.46573590E-07     +3.46573590E-07
GRDP 104 0 POLY 2  113 0 114 0 0 -5.10970951E+00     -5.10970951E+00
R2 106 0 +1.44269504E+06
CC 106 104 +1.00000000E-14
RD 104 0 +3.32000000E+02
RA 104 109 +8.00000000E+00
DH 104 100 DH +1.00000000E+00
DL 131 104 DL +1.00000000E+00
.MODEL DH D  IS=+2.16387643E-14 N=.2
.MODEL DL D  IS=+6.45488179E-15 N=.2
ECC 100 0 POLY 2  113 0 132 0 -1.10000000E+00 1 1
EEE 131 0 POLY 2  114 0 133 0 +1.13500000E+00 1 1
FCC 0 132 POLY 1  VMI  -1.30520000E-04  +1.30000000E-01
RCC 132 0 1K
CRC 132 0 +1.00000000E-10
D55 132 0 DLIMVO
FEE 0 133 POLY 1  VMI  +2.19120000E-04  +2.20000000E-01
REE 133 0 1K
CRE 133 0 +1.00000000E-10
D66 0 133 DLIMVO
 .MODEL DLIMVO D N=.01 IS=1E-20
DP 104 134 DCL +1.00000000E+00
EXP 134 0 POLY 2  104 0 109 0 0 -1.75393075E-01  +1.17421768E+00
DN 107 104 DCL +1.00000000E+00
EXN 107 0 POLY 2  104 0 109 0 0 +8.82115687E-02   +9.09643047E-01
 .MODEL DCL D  IS=1E-9  N=1
IPS 113 114 +5.78000000E-03
GPS 135 0 104 109 +1.25000000E-01
GH 113 135 POLY 1  135 114 +1.52098765E-02  -3.04197531E-02 +2.28148148E-02
+-7.60493827E-03 +9.50617284E-04
DPS 135 114 DPS
 .MODEL DPS D IS=1E-16   N=+3.40657494E+00
GEN 0 136 POLY 3  110 0 113 0 114 0 +4.00000000E+00  +1.00000000E+00
+-1.00000000E+00  +0.00000000E+00
DEH 136 121 DLIM
REH 121 0 1K
DE1 121 137 DLIM
VO1 137 0 0.99
DEL 0 136 DLIM
.MODEL DLIM D N=.01 IS=1E-20
GRM 102 116 POLY 2  102 116 121 0 0 0 0 0 +1.42857143E+01
GMI2 126 0 POLY 2  104 0 121 0 0 +2.04356846E-10 0 0 -2.04356846E-10
GOR 0 138 POLY 3  109 0 115 0 121 0 -6.40000000E-01 0 0 +1.28000000E+00 1  -2
+0 1
DOH 138 139 DLIM
ROH 139 0 1K
DO1 139 137 DLIM
DOL 0 138 DLIM
GRO 109 115 POLY 2  109 115 139 0 0 0 0 0 +1.25000000E+01
GCR 0 140 POLY 3  0 140 121 0 104 109 0 0 0 +1.25000000E+01 0 100
DCH 140 141 DLIM
RCH 141 0 +8.00000000E+04
DC1 141 137 DLIM
DCL 142 140 DLIM
RCL 142 0 +8.00000000E+04
DC2 143 142 DLIM
VC2 0 143 0.99
GMI3 126 0 POLY 3  121 0 141 0 0 142 0 0 -1.10000000E-08   +1.60000000E-08 0
++1.10000000E-08   -1.60000000E-08
.ENDS HA5024_HA
*
* Copyright (C) 1996 Harris Corp.
* All Rights Reserved
*
* HA5025 Macro Model
* Rev. 7/17/96
*
* Subcircuit Call Order: +IN -IN Vcc Vee Out
*
* (Note:This subciruit models only 1 amplifier of the package, so the Icc is
* set to 1/4 the total HA5025 Icc)
*
.SUBCKT HA5025_HA 101 111 113 114 112
LAO 115 112 250N
RAO 115 112 125
CAO 112 0 4P
LAI 116 111 40N
RAI 116 111 200
CAI 116 111 3P
CPI 111 0 1.5P
CPF 112 111 2.5P
.MODEL QIP PNP IS=1.0E-16 BF=130 NF=2.2
.MODEL QIM NPN IS=1.0E-16 BF=220 NF=2.5
.MODEL QOP NPN IS=1.0E-16 BF=180 NF=2.2
.MODEL QOM PNP IS=1.1E-16 BF=50 NF=2.5
ROP 113 117 +3.50000000E+02
QOP 117 118 119 QOP
CIP2 120 118 +2.73661972E-13
CIP 113 118 +6.70000000E-13
DIP 118 113 DLIM
GIP 113 118 121 0 +3.35000000E-04
DIPL 114 118 DLIM
QIP 114 120 118 QIP
RIN 101 120 280
CIN2 101 0 .03P
RIG 101 0 +2.60000000E+07
CIN 120 0 .5PF
QIM 113 120 122 QIM
GIM 122 114 121 0 +3.35000000E-04
DIML 122 113 DLIM
DIM 114 122 DLIM
CIM 122 114 +6.29914530E-13
CIM2 120 122 +3.24501425E-13
QOM 123 122 119 QOM
ROM 123 114 +3.50000000E+02
.MODEL DLIM2 D N=.01 IS=1E-10
RE1 113 124 15K
DEN 124 113 DEN
.MODEL DEN D  BV=+5.26 IBV=1.0E-10
VMI 102 108 +0.00000000E+00
EVC 119 108 POLY 4  101 0 102 0 113 0 114 0 -2.13000009E-03 +3.09210000E-04
++3.09210000E-04 -3.15209991E-04 -3.03210009E-04 0 0 -1.88100000E-06
++1.88100000E-06 0 -1.88100000E-06 +1.88100000E-06 +1.88100000E-06 0
+-1.88100000E-06
CMI 102 0 +1.00000000E-16
HITV 0 125 VMI 1
RITV 125 0 1
GII 0 126 POLY 2  121 0 125 0 0 0 0 0 -1.97000000E-03
GCC 0 126 POLY 5  121 0 101 0 102 0 113 0 114 0 0 +7.80927711E-09 0 0 0 0 0
++2.78640749E-11 +2.78640749E-11 +3.49558407E-11 +2.07723091E-11 0 0 0 0 0   0
+0 0 0 0 0 0 0 0 0 0 0 -1.92087022E-16 +1.92087022E-16 0 -1.92087022E-16
++1.92087022E-16 +1.92087022E-16 0 -1.92087022E-16
RT 126 0 +1.00000000E+00
GPC 0 126 POLY 3  121 0 113 0 114 0 0 0 0 0 0 +0.00000000E+00 +0.00000000E+00
R1A 127 0 +2.14285714E+03
RZ1A 127 128 -1.14285714E+03
C1A 128 0 +7.95798186E-13
GINA 0 127 126 0 +4.66666667E-04
R2A 129 0 +2.25000000E+03
RZ2A 129 130 -1.25000000E+03
C2A 130 0 +3.18319274E-13
G2A 0 129 127 0 +4.44444444E-04
GOUTA 106 0 129 0 -1.00000000E+00
GRD 104 0 106 0 +1.02164070E+01
G2P 0 106 POLY 2  113 0 114 0 0 +3.46573590E-07     +3.46573590E-07
GRDP 104 0 POLY 2  113 0 114 0 0 -5.10970951E+00     -5.10970951E+00
R2 106 0 +1.44269504E+06
CC 106 104 +1.00000000E-14
RD 104 0 +3.32000000E+02
RA 104 109 +8.00000000E+00
DH 104 100 DH +1.00000000E+00
DL 131 104 DL +1.00000000E+00
.MODEL DH D  IS=+2.16387643E-14 N=.2
.MODEL DL D  IS=+6.45488179E-15 N=.2
ECC 100 0 POLY 2  113 0 132 0 -1.10000000E+00 1 1
EEE 131 0 POLY 2  114 0 133 0 +1.13500000E+00 1 1
FCC 0 132 POLY 1  VMI  -1.30520000E-04  +1.30000000E-01
RCC 132 0 1K
CRC 132 0 +1.00000000E-10
D55 132 0 DLIMVO
FEE 0 133 POLY 1  VMI  +2.19120000E-04  +2.20000000E-01
REE 133 0 1K
CRE 133 0 +1.00000000E-10
D66 0 133 DLIMVO
 .MODEL DLIMVO D N=.01 IS=1E-20
DP 104 134 DCL +1.00000000E+00
EXP 134 0 POLY 2  104 0 109 0 0 -1.75393075E-01  +1.17421768E+00
DN 107 104 DCL +1.00000000E+00
EXN 107 0 POLY 2  104 0 109 0 0 +8.82115687E-02   +9.09643047E-01
 .MODEL DCL D  IS=1E-9  N=1
IPS 113 114 +5.78000000E-03
GPS 135 0 104 109 +1.25000000E-01
GH 113 135 POLY 1  135 114 +1.52098765E-02  -3.04197531E-02 +2.28148148E-02
+-7.60493827E-03 +9.50617284E-04
DPS 135 114 DPS
 .MODEL DPS D IS=1E-16   N=+3.40657494E+00
GEN 0 136 POLY 3  113 0 113 0 114 0 +4.00000000E+00  +1.00000000E+00
+-1.00000000E+00  +0.00000000E+00
DEH 136 121 DLIM
REH 121 0 1K
DE1 121 137 DLIM
VO1 137 0 0.99
DEL 0 136 DLIM
.MODEL DLIM D N=.01 IS=1E-20
GRM 102 116 POLY 2  102 116 121 0 0 0 0 0 +1.42857143E+01
GMI2 126 0 POLY 2  104 0 121 0 0 +2.04356846E-10 0 0 -2.04356846E-10
GOR 0 138 POLY 3  109 0 115 0 121 0 -6.40000000E-01 0 0 +1.28000000E+00 1  -2
+0 1
DOH 138 139 DLIM
ROH 139 0 1K
DO1 139 137 DLIM
DOL 0 138 DLIM
GRO 109 115 POLY 2  109 115 139 0 0 0 0 0 +1.25000000E+01
GCR 0 140 POLY 3  0 140 121 0 104 109 0 0 0 +1.25000000E+01 0 100
DCH 140 141 DLIM
RCH 141 0 +8.00000000E+04
DC1 141 137 DLIM
DCL 142 140 DLIM
RCL 142 0 +8.00000000E+04
DC2 143 142 DLIM
VC2 0 143 0.99
GMI3 126 0 POLY 3  121 0 141 0 0 142 0 0 -1.10000000E-08   +1.60000000E-08 0
++1.10000000E-08   -1.60000000E-08
.ENDS HA5025_HA
*
* Copyright (C) 1993 Harris Corp.
* All Rights Reserved
*
* HFA1100 Macro Model
* Rev. 8/11/93
*
* Subcircuit Call Order: +IN -IN Vcc Vee Out
*
.SUBCKT HFA1100_HA           106 107 109 110 108
ROUT2 111 108 5
LOUT2 111 108 .55N
COUT2 112 108 2.5PF
ROUT3 102 112 .2
CCNP 113 109 .475P
DLINP 113 109 DL
ILINP 109 113 1.25M
QINP 113 114 115 QINP
IINP 109 114 0.85M
CINP 109 114 0.38P
DINP 114 116 INDP
RIN 106 116 250
DINM 116 117 INDM
CINM 117 110 0.38P
IINM 117 110 0.833M
QINM 118 117 115 QINM
ILINM 118 110 1.60M
DLINM 110 118 DL
CCNM 118 110 .41P
LOM 107 115 13N
ROM 107 115 225
COM 107 0 +1.00000000E-12
INBC 107 0 -1.20000003E-05
.MODEL DL D
.MODEL INDP D IS=+3.60000006E-17
.MODEL INDM D IS=+4.80000008E-17
.MODEL QINP NPN IS=+2.00000003E-17 BF=+1.00000000E+02
.MODEL QINM PNP IS=+4.00000006E-17 BF=+4.00000000E+01
.MODEL DP D  IS=1E-14  N=+1.62284157E+00
.MODEL DN D  IS=+1.04421054E-14    N=+1.62284157E+00
.MODEL DV D  IS=+2.44905117E-16  N=.2
.MODEL D1 D  IS=1E-9  N=1
.MODEL D2 D  IS=1E-9  N=+7.49999989E-01
.MODEL DX D  IS=1E-20  N=+2.00000000E+01
VP 116 120 +4.45999979E-03
VN 115 121 0
I1 100 0 +2.04421054E-08
FA 115 0 VN -4.23387106E-02
DP 120 100 DP
DN 121 100 DN
FP 104 0 VP  +1.21318229E+03
FN 0 104 VN  +1.16181771E+03
GC 0 104 100 0 +9.20141571E-08
GPP 104 0 109 0 +3.26478544E-07
GPN 104 0 110 0 +1.83592377E-07
IRX 0 104 +7.67432923E-07
RT 104 0 1.0
ECP 122 0 104 0 1.0
RCP 122 123 +9.94687500E+01
LCP 123 124 +2.47363288E-09
CCP 124 125 1E-12
RXP 124 125 1E8
VCP 125 0 0.0
FCZ 0 126 VCP  1.0
RCZ 126 127 +2.15067568E+00
LCZ 127 128 +1.15640977E-10
CCZ 128 0 1E-12
RXZ 128 0 1E8
EP1 129 0 126 0 1.0
RP1 129 130 +7.44974348E-01
RZ1 130 131 -1.32666665E-01
CP1 131 0 1E-10
EP2 132 0 130 0 1.0
RP2 132 133 +4.08529094E-01
RZ2 133 134 -1.13714284E-01
CP2 134 0 1E-10
EP3 135 0 133 0 1.0
RP3 135 136 +1.99000004E-02
CP3 136 0 1E-10
GPZ 0 101 136 0 1.0
R2 101 0 +1.44269504E+06
CC 101 102 +1.00000002E-14
GOL 102 0 101 0 +5.48723722E-01
RD 102 0 +2.38770000E+02
DH 102 105 DV
DL 137 102 DV
ECC 105 0 POLY 1  109 0 -1.70000000E+00  1.0
EEE 137 0 POLY 1  110 0 +1.80000000E+00  1.0
IH 109 0 +1.94050004E-02
IL 0 110 +1.94050004E-02
GPS 119 0 102 111 +8.13008118E-01
DPH 109 119 DX
DPL 119 110 DX
D1 102 138 D1
D2 138 102 D2
EX1 138 139 POLY 2  102 139 111 139 0.0   -2.43783081E+00   +3.42414624E+00
EX2 139 0 POLY 2  109 0 110 0 0 0.5 0.5
RO 102 111 +1.23000000E+00
CCNS 119 0 1PF
.ENDS HFA1100_HA
*
* Copyright (C) 1996 Harris Corp.
* All Rights Reserved
*
* Rev. 1/24/96
* Be sure to set ITL4=100 and turn on STEPGMIN; otherwise, convergence
* errors may result.
*
* Subcircuit Call Order: +IN -IN Vcc Vee Out
*
.SUBCKT HFA1109_HA       106 107 109 110 108
VMI 111 112 +0.00000000E+00
GINIH 0 113 109 0 1M
R1IH 113 0 1K
C1IH 113 0 +1.59159637E-13
R2IH 114 0 -1.00000000E+03
RY2IH 114 115 +1.00000000E+03
C2IH 115 0 +4.82301931E-11
G2IH 0 114 113 0 -1.00000000E-03
GOUTIH 116 0 114 0 -1.00000000E+00
RPGIH 116 0 1
GINIL 0 117 110 0 1M
R1IL 117 0 1K
C1IL 117 0 +1.59159637E-13
R2IL 118 0 -1.00000000E+03
RY2IL 118 119 +1.00000000E+03
C2IL 119 0 +8.37682301E-11
G2IL 0 118 117 0 -1.00000000E-03
GOUTIL 120 0 118 0 -1.00000000E+00
RPGIL 120 0 1
EVC 121 112 POLY 4  106 0 111 0 116 0 120 0 -2.76409908E-03
++2.23336645E-04 +2.23336645E-04 +8.08400638E-05 -5.27513353E-04 0 0
+-7.70216445E-06 +7.70216445E-06 0 -7.70216445E-06 +7.70216445E-06
++7.70216445E-06 0 -7.70216445E-06
CMI 111 0 +1.00000000E-15
FPM 122 0 VMI +1.00000000E+00
DMP 122 123 DIM
DMM 124 122 DIM
 .MODEL DIM D IS=1E-16 N=.001
GCC 122 0 POLY 4  106 0 111 0 109 0 110 0 +6.58458515E-06   +4.90772982E-07
++4.90772982E-07 -1.08867981E-07 +1.09041394E-06   0 0 +1.74372872E-08
+-1.74372872E-08 0 +1.74372872E-08 -1.74372872E-08   -1.74372872E-08 0
++1.74372872E-08
VMP 123 0 0
VMM 0 124 0
FMI 0 103 POLY 2 VMP VMM 0 -9.00000000E-03   +9.00000000E-03
RT 103 0 +1.00000000E+00
GPC 0 103 POLY 2  109 0 110 0 0 +0.00000000E+00 +0.00000000E+00
GINA 0 125 103 0 1M
R1A 125 0 1K
C1A 125 0 +1.59159637E-13
G2A 0 126 125 0 1M
R2A 126 0 1K
C2A 126 0 +5.89480137E-14
G3A 0 127 126 0 1M
R3A 127 0 1K
C3A 127 0 +3.97899093E-15
R4A 128 0 +1.00000000E+03
RY4A 128 129 -1.00000000E+03
C4A 129 0 +2.65266062E-14
G4A 0 128 127 0 +1.00000000E-03
R5A 130 0 +1.00000000E+03
RY5A 130 131 -1.00000000E+03
C5A 131 0 +2.27370910E-14
G5A 0 130 128 0 +1.00000000E-03
GI6A 0 132 130 0 +2.00000000E-03
R6A 132 0 +1.00000000E+03
C6A 132 0 +5.82692545E-14
G6A 0 132 133 0 -1.00000000E-03
GY6A 0 133 132 0 1M
CY6A 133 0 +3.39618104E-13
RY6A 133 0 1K
RO6A 0 134 1e9
R7A 134 135 +5.02412563E+05
GI7A 0 134 133 0 +1.99000000E-06