*********
* The following is a list of Harris Power Mosfet IsSpice4 Junction to Case
* thermal models contained in this library file. In the case of a surface 
* mount package variant, designated by a suffix of "SM" or "S" in the part 
* number, use the base part number for the subcircuit call function.
*********
*
* File revised on 9/4/97
*
* RFD10P06LET   RFP10P06LET   RFD8P06LET    RFP8P06LET    RF1K49221T
* RF1K49223T    RF1K49224T    HUF75307P3T   HUF75307D3T   HUF75309P3T
* HUF75309D3T   HUF75321D3T   HUF75321P3T   HUF75321S3T   HUF75329G3T
* HUF75329P3T   HUF75329S3T   HUF75333G3T   HUF75333P3T   HUF75333S3T
* HUF75339G3T   HUF75339P3T   HUF75339S3T   HUF75343G3T   HUF75343P3T
* HUF75343S3T   HUF75345G3T   HUF75345P3T   HUF75345S3T   RFD20N03T
* RFP42N03T     RF1S42N03T    HUF75307T3T   HUF75309T3T
*********
*SRC=RFD10P06LET;RFD10P06LET;MOSFETs N;Harris;Thermal Model
*SYM=HARJCP
.SUBCKT RFD10P06LET   7      1     ;Rev. August 29, 1996
* Connections     Junction Case
* IsSpice4 Model thermal circuit file for the following parts:
* RFD10P06LE, RFD10P06LESM
* For a detail specification see datasheet FN3515
*
* This netlist represents an equivalent electrical circuit of the typical
* junction to case thermal path of the die and package combination. Power
* dissipated in this path is represented by current into the junction node
* Temperature at the case or junction node is represented by the
* voltage level at that node. 
*
CTHERM1 7 6 5.00e-7 IC=0
CTHERM2 6 5 5.35e-4 IC=0
CTHERM3 5 4 5.50e-4 IC=0
CTHERM4 4 3 1.75e-3 IC=0
CTHERM5 3 2 1.25e-2 IC=0
CTHERM6 2 1 0.11 IC=0
RTHERM1 7 6 1.00e-2
RTHERM2 6 5 2.05e-2
RTHERM3 5 4 5.39e-2
RTHERM4 4 3 5.45e-1
RTHERM5 3 2 1.01
RTHERM6 2 1 0.50
.ENDS
**********
*SRC=RFP10P06LET;RFP10P06LET;MOSFETs N;Harris;Thermal Model
*SYM=HARJCP
.SUBCKT RFP10P06LET   7      1     ;Rev. August 29, 1996
* Connections     Junction Case
* IsSpice4 Model thermal circuit file for the following parts:
* RFP10P06LE
* For a detail specification see datasheet FN3515
* 
* This netlist represents an equivalent electrical circuit of the typical
* junction to case thermal path of the die and package combination. Power
* dissipated in this path is represented by current into the junction node
* Temperature at the case or junction node is represented by the
* voltage level at that node. 
*
CTHERM1 7 6 5.00e-7 IC=0
CTHERM2 6 5 5.35e-4 IC=0
CTHERM3 5 4 5.50e-4 IC=0
CTHERM4 4 3 1.75e-3 IC=0
CTHERM5 3 2 1.25e-2 IC=0
CTHERM6 2 1 0.45 IC=0
RTHERM1 7 6 1.00e-2
RTHERM2 6 5 2.05e-2
RTHERM3 5 4 5.39e-2
RTHERM4 4 3 5.45e-1
RTHERM5 3 2 1.01
RTHERM6 2 1 0.50
.ENDS
**********
*SRC=RFD8P06LET;RFD8P06LET;MOSFETs N;Harris;Thermal Model
*SYM=HARJCP
.SUBCKT RFD8P06LET   7       1     ;Rev. July 29, 1996
* Connections     Junction Case
* IsSpice4 Model thermal circuit file for the following parts:
* RFD8P06LE, RFD8P06LESM
* For a detail specification see datasheet FN4273
* 
* This netlist represents an equivalent electrical circuit of the typical
* junction to case thermal path of the die and package combination. Power
* dissipated in this path is represented by current into the junction node
* Temperature at the case or junction node is represented by the
* voltage level at that node. 
*
CTHERM1 7 6 1.30e-4 IC=0
CTHERM2 6 5 1.50e-4 IC=0
CTHERM3 5 4 1.00e-3 IC=0
CTHERM4 4 3 2.00e-3 IC=0
CTHERM5 3 2 1.50e-2 IC=0
CTHERM6 2 1 0.12 IC=0
RTHERM1 7 6 3.00e-2
RTHERM2 6 5 5.00e-2
RTHERM3 5 4 0.10
RTHERM4 4 3 1.15
RTHERM5 3 2 1.20
RTHERM6 2 1 0.55
.ENDS
**********
*SRC=RFP8P06LET;RFP8P06LET;MOSFETs N;Harris;Thermal Model
*SYM=HARJCP
.SUBCKT RFP8P06LET   7       1     ;Rev. July 29, 1996
* Connections     Junction Case
* IsSpice4 Model thermal circuit file for the following parts:
* RFP8P06LE
* For a detail specification see datasheet FN4273
* 
* This netlist represents an equivalent electrical circuit of the typical
* junction to case thermal path of the die and package combination. Power
* dissipated in this path is represented by current into the junction node
* Temperature at the case or junction node is represented by the
* voltage level at that node. 
*
CTHERM1 7 6 1.30e-4 IC=0
CTHERM2 6 5 4.50e-4 IC=0
CTHERM3 5 4 1.00e-3 IC=0
CTHERM4 4 3 2.00e-3 IC=0
CTHERM5 3 2 1.50e-2 IC=0
CTHERM6 2 1 0.55 IC=0
RTHERM1 7 6 3.00e-2
RTHERM2 6 5 5.00e-2
RTHERM3 5 4 0.10
RTHERM4 4 3 1.15
RTHERM5 3 2 1.20
RTHERM6 2 1 0.55
.ENDS
**********
*SRC=RF1K49221T;RF1K49221T;MOSFETs N;Harris;Thermal Model
*SYM=HARJCP
.SUBCKT RF1K49221T   7       1     ;Rev. Feb. 28, 1997
* Connections     Junction Case
* IsSpice4 Model thermal circuit file for the following parts:
* RF1K49221
* For a detail specification see datasheet FN4314
* 
* This netlist represents an equivalent electrical circuit of the typical
* junction to case thermal path of the die and package combination. Power
* dissipated in this path is represented by current into the junction node
* Temperature at the case or junction node is represented by the
* voltage level at that node. 
*
CTHERM1 7 6 1.00e-7 IC=0
CTHERM2 6 5 9.00e-4 IC=0
CTHERM3 5 4 3.00e-3 IC=0
CTHERM4 4 3 4.00e-2 IC=0
CTHERM5 3 2 5.20e-3 IC=0
CTHERM6 2 1 1.90e-2 IC=0
RTHERM1 7 6 7.10e-2
RTHERM2 6 5 1.90e-1
RTHERM3 5 4 5.95e-1
RTHERM4 4 3 4.27
RTHERM5 3 2 12.0
RTHERM6 2 1 104
.ENDS
**********
*SRC=RF1K49223T;RF1K49223T;MOSFETs N;Harris;Thermal Model
*SYM=HARJCP
.SUBCKT RF1K49223T   7       1     ;Rev. Feb. 28, 1997
* Connections     Junction Case
* IsSpice4 Model thermal circuit file for the following parts:
* RF1K49223
* For a detail specification see datasheet FN4322
* 
* This netlist represents an equivalent electrical circuit of the typical
* junction to case thermal path of the die and package combination. Power
* dissipated in this path is represented by current into the junction node
* Temperature at the case or junction node is represented by the
* voltage level at that node. 
*
CTHERM1 7 6 1.00e-7 IC=0
CTHERM2 6 5 9.00e-4 IC=0
CTHERM3 5 4 3.00e-3 IC=0
CTHERM4 4 3 4.00e-2 IC=0
CTHERM5 3 2 5.20e-3 IC=0
CTHERM6 2 1 1.90e-2 IC=0
RTHERM1 7 6 7.10e-2
RTHERM2 6 5 1.90e-1
RTHERM3 5 4 5.95e-1
RTHERM4 4 3 4.27
RTHERM5 3 2 12.0
RTHERM6 2 1 104
.ENDS
**********
*SRC=RF1K49224T;RF1K49224T;MOSFETs N;Harris;Thermal Model
*SYM=HARJCP
.SUBCKT RF1K49224T   7       1     ;Rev. Feb. 28, 1997
* Connections     Junction Case
* IsSpice4 Model thermal circuit file for the following parts:
* RF1K49224
* For a detail specification see datasheet FN4322
* 
* This netlist represents an equivalent electrical circuit of the typical
* junction to case thermal path of the die and package combination. Power
* dissipated in this path is represented by current into the junction node
* Temperature at the case or junction node is represented by the
* voltage level at that node. 
*
CTHERM1 7 6 1.00e-7 IC=0
CTHERM2 6 5 9.00e-4 IC=0
CTHERM3 5 4 3.00e-3 IC=0
CTHERM4 4 3 4.00e-2 IC=0
CTHERM5 3 2 5.20e-3 IC=0
CTHERM6 2 1 1.90e-2 IC=0
RTHERM1 7 6 7.10e-2
RTHERM2 6 5 1.90e-1
RTHERM3 5 4 5.95e-1
RTHERM4 4 3 4.27
RTHERM5 3 2 12.0
RTHERM6 2 1 104
.ENDS
**********
*SRC=HUF75307P3T;HUF75307P3T;MOSFETs N;Harris;Thermal Model
*SYM=HARJCP
.SUBCKT HUF75307P3T  7       1     ;Rev. June 1, 1997
* Connections     Junction Case
* IsSpice4 Model thermal circuit file for the following parts:
* HUF75307P3
* For a detail specification see datasheet FN4357
* 
* This netlist represents an equivalent electrical circuit of the typical
* junction to case thermal path of the die and package combination. Power
* dissipated in this path is represented by current into the junction node
* Temperature at the case or junction node is represented by the
* voltage level at that node. 
*
CTHERM1 7 6 1.50e-7 IC=0
CTHERM2 6 5 2.20e-4 IC=0
CTHERM3 5 4 8.00e-4 IC=0
CTHERM4 4 3 3.40e-2 IC=0
CTHERM5 3 2 5.00e-3 IC=0
CTHERM6 2 1 2.00e-1 IC=0
RTHERM1 7 6 5.50e-2
RTHERM2 6 5 2.00e-1
RTHERM3 5 4 1.10
RTHERM4 4 3 2.10e-1
RTHERM5 3 2 1.50
RTHERM6 2 1 4.50e-1
.ENDS
**********
*SRC=HUF75307D3T;HUF75307D3T;MOSFETs N;Harris;Thermal Model
*SYM=HARJCP
.SUBCKT HUF75307D3T  7       1     ;Rev. June 1, 1997
* Connections     Junction Case
* IsSpice4 Model thermal circuit file for the following parts:
* HUF75307D3, HUF75307D3S
* For a detail specification see datasheet FN4357
* 
* This netlist represents an equivalent electrical circuit of the typical
* junction to case thermal path of the die and package combination. Power
* dissipated in this path is represented by current into the junction node
* Temperature at the case or junction node is represented by the
* voltage level at that node. 
*
CTHERM1 7 6 1.50e-7 IC=0
CTHERM2 6 5 2.20e-4 IC=0
CTHERM3 5 4 8.00e-4 IC=0
CTHERM4 4 3 3.40e-2 IC=0
CTHERM5 3 2 5.00e-3 IC=0
CTHERM6 2 1 2.00e-1 IC=0
RTHERM1 7 6 5.50e-2
RTHERM2 6 5 2.00e-1
RTHERM3 5 4 1.10
RTHERM4 4 3 2.10e-1
RTHERM5 3 2 1.50
RTHERM6 2 1 4.50e-1
.ENDS
**********
*SRC=HUF75309P3T;HUF75309P3T;MOSFETs N;Harris;Thermal Model
*SYM=HARJCP
.SUBCKT HUF75309P3T   7      1     ;Rev. June 25, 1997
* Connections     Junction Case
* IsSpice4 Model thermal circuit file for the following parts:
* HUF75309P3
* For a detail specification see datasheet FN4358
* 
* This netlist represents an equivalent electrical circuit of the typical
* junction to case thermal path of the die and package combination. Power
* dissipated in this path is represented by current into the junction node
* Temperature at the case or junction node is represented by the
* voltage level at that node. 
*
CTHERM1 7 6 9.50e-5 IC=0
CTHERM2 6 5 3.80e-4 IC=0
CTHERM3 5 4 1.60e-3 IC=0
CTHERM4 4 3 5.70e-3 IC=0
CTHERM5 3 2 1.80e-1 IC=0
CTHERM6 2 1 8.50e-1 IC=0
RTHERM1 7 6 7.30e-2
RTHERM2 6 5 1.95e-1
RTHERM3 5 4 9.60e-1
RTHERM4 4 3 1.22
RTHERM5 3 2 3.30e-1
RTHERM6 2 1 3.20e-1
.ENDS
**********
*SRC=HUF75309D3T;HUF75309D3T;MOSFETs N;Harris;Thermal Model
*SYM=HARJCP
.SUBCKT HUF75309D3T   7      1     ;Rev. June 25, 1997
* Connections     Junction Case
* IsSpice4 Model thermal circuit file for the following parts:
* HUF75309D3, HUF75309D3S
* For a detail specification see datasheet FN4358
* 
* This netlist represents an equivalent electrical circuit of the typical
* junction to case thermal path of the die and package combination. Power
* dissipated in this path is represented by current into the junction node
* Temperature at the case or junction node is represented by the
* voltage level at that node. 
*
CTHERM1 7 6 9.50e-5 IC=0
CTHERM2 6 5 3.80e-4 IC=0
CTHERM3 5 4 1.60e-3 IC=0
CTHERM4 4 3 5.70e-3 IC=0
CTHERM5 3 2 1.80e-1 IC=0
CTHERM6 2 1 8.50e-1 IC=0
RTHERM1 7 6 7.30e-2
RTHERM2 6 5 1.95e-1
RTHERM3 5 4 9.60e-1
RTHERM4 4 3 1.22
RTHERM5 3 2 3.30e-1
RTHERM6 2 1 3.20e-1
.ENDS
**********
*SRC=HUF75321D3T;HUF75321D3T;MOSFETs N;Harris;Thermal Model
*SYM=HARJCP
.SUBCKT HUF75321D3T  7       1     ;Rev. June 12, 1997
* Connections    Junction Case
* IsSpice4 Model thermal circuit file for the following parts:
* HUF75321D3, HUF75321D3S
* For a detail specification see datasheet FN4358
* 
* This netlist represents an equivalent electrical circuit of the typical
* junction to case thermal path of the die and package combination. Power
* dissipated in this path is represented by current into the junction node
* Temperature at the case or junction node is represented by the
* voltage level at that node. 
*
CTHERM1 7 6 4.75e-7 IC=0
CTHERM2 6 5 4.60e-4 IC=0
CTHERM3 5 4 2.06e-3 IC=0
CTHERM4 4 3 1.30e-2 IC=0
CTHERM5 3 2 2.00e-1 IC=0
CTHERM6 2 1 8.05e-1 IC=0
RTHERM1 7 6 2.65e-2
RTHERM2 6 5 9.00e-2
RTHERM3 5 4 6.60e-1
RTHERM4 4 3 8.80e-1
RTHERM5 3 2 4.60e-1
RTHERM6 2 1 4.40e-1
.ENDS
**********
*SRC=HUF75321P3T;HUF75321P3T;MOSFETs N;Harris;Thermal Model
*SYM=HARJCP
.SUBCKT HUF75321P3T  7       1     ;Rev. June 13, 1997
* Connections    Junction Case
* IsSpice4 Model thermal circuit file for the following parts:
* HUF75321P3
* For a detail specification see datasheet FN4360
* 
* This netlist represents an equivalent electrical circuit of the typical
* junction to case thermal path of the die and package combination. Power
* dissipated in this path is represented by current into the junction node
* Temperature at the case or junction node is represented by the
* voltage level at that node. 
*
CTHERM1 7 6 4.90e-7 IC=0
CTHERM2 6 5 4.50e-4 IC=0
CTHERM3 5 4 1.62e-3 IC=0
CTHERM4 4 3 1.30e-2 IC=0
CTHERM5 3 2 1.20e-1 IC=0
CTHERM6 2 1 1.20 IC=0
RTHERM1 7 6 2.40e-2
RTHERM2 6 5 7.80e-2
RTHERM3 5 4 4.55e-1
RTHERM4 4 3 6.80e-1
RTHERM5 3 2 4.10e-1
RTHERM6 2 1 3.90e-1
.ENDS
**********
*SRC=HUF75321S3T;HUF75321S3T;MOSFETs N;Harris;Thermal Model
*SYM=HARJCP
.SUBCKT HUF75321S3T  7       1     ;Rev. June 13, 1997
* Connections    Junction Case
* IsSpice4 Model thermal circuit file for the following parts:
* HUF75321S3, HUF75321S3S
* For a detail specification see datasheet FN4360
* 
* This netlist represents an equivalent electrical circuit of the typical
* junction to case thermal path of the die and package combination. Power
* dissipated in this path is represented by current into the junction node
* Temperature at the case or junction node is represented by the
* voltage level at that node. 
*
CTHERM1 7 6 4.90e-7 IC=0
CTHERM2 6 5 4.50e-4 IC=0
CTHERM3 5 4 1.62e-3 IC=0
CTHERM4 4 3 1.30e-2 IC=0
CTHERM5 3 2 1.20e-1 IC=0
CTHERM6 2 1 1.20 IC=0
RTHERM1 7 6 2.40e-2
RTHERM2 6 5 7.80e-2
RTHERM3 5 4 4.55e-1
RTHERM4 4 3 6.80e-1
RTHERM5 3 2 4.10e-1
RTHERM6 2 1 3.90e-1
.ENDS
**********
*SRC=HUF75329G3T;HUF75329G3T;MOSFETs N;Harris;Thermal Model
*SYM=HARJCP
.SUBCKT HUF75329G3T  7       1     ;Rev. June 16, 1997
* Connections    Junction Case
* IsSpice4 Model thermal circuit file for the following parts:
* HUF75329G3
* For a detail specification see datasheet FN4361
* 
* This netlist represents an equivalent electrical circuit of the typical
* junction to case thermal path of the die and package combination. Power
* dissipated in this path is represented by current into the junction node
* Temperature at the case or junction node is represented by the
* voltage level at that node. 
*
CTHERM1 7 6 4.90e-7 IC=0
CTHERM2 6 5 4.90e-4 IC=0
CTHERM3 5 4 1.96e-3 IC=0
CTHERM4 4 3 7.90e-3 IC=0
CTHERM5 3 2 1.85e-1 IC=0
CTHERM6 2 1 2.70 IC=0
RTHERM1 7 6 1.10e-2
RTHERM2 6 5 3.30e-2
RTHERM3 5 4 1.64e-1
RTHERM4 4 3 7.90e-1
RTHERM5 3 2 3.60e-1
RTHERM6 2 1 1.60e-1
.ENDS
**********
*SRC=HUF75329P3T;HUF75329P3T;MOSFETs N;Harris;Thermal Model
*SYM=HARJCP
.SUBCKT HUF75329P3T  7       1     ;Rev. June 16, 1997
* Connections    Junction Case
* IsSpice4 Model thermal circuit file for the following parts:
* HUF75329P3
* For a detail specification see datasheet FN4361
* 
* This netlist represents an equivalent electrical circuit of the typical
* junction to case thermal path of the die and package combination. Power
* dissipated in this path is represented by current into the junction node
* Temperature at the case or junction node is represented by the
* voltage level at that node. 
*
CTHERM1 7 6 4.90e-7 IC=0
CTHERM2 6 5 4.90e-4 IC=0
CTHERM3 5 4 1.96e-3 IC=0
CTHERM4 4 3 7.90e-3 IC=0
CTHERM5 3 2 1.85e-1 IC=0
CTHERM6 2 1 2.70 IC=0
RTHERM1 7 6 1.10e-2
RTHERM2 6 5 3.30e-2
RTHERM3 5 4 1.64e-1
RTHERM4 4 3 7.90e-1
RTHERM5 3 2 3.60e-1
RTHERM6 2 1 1.60e-1
.ENDS
**********
*SRC=HUF75329S3T;HUF75329S3T;MOSFETs N;Harris;Thermal Model
*SYM=HARJCP
.SUBCKT HUF75329S3T  7       1     ;Rev. June 16, 1997
* Connections    Junction Case
* IsSpice4 Model thermal circuit file for the following parts:
* HUF75329S3, HUF75329S3S
* For a detail specification see datasheet FN4361
* 
* This netlist represents an equivalent electrical circuit of the typical
* junction to case thermal path of the die and package combination. Power
* dissipated in this path is represented by current into the junction node
* Temperature at the case or junction node is represented by the
* voltage level at that node. 
*
CTHERM1 7 6 4.90e-7 IC=0
CTHERM2 6 5 4.90e-4 IC=0
CTHERM3 5 4 1.96e-3 IC=0
CTHERM4 4 3 7.90e-3 IC=0
CTHERM5 3 2 1.85e-1 IC=0
CTHERM6 2 1 2.70 IC=0
RTHERM1 7 6 1.10e-2
RTHERM2 6 5 3.30e-2
RTHERM3 5 4 1.64e-1
RTHERM4 4 3 7.90e-1
RTHERM5 3 2 3.60e-1
RTHERM6 2 1 1.60e-1
.ENDS
**********
*SRC=HUF75333G3T;HUF75333G3T;MOSFETs N;Harris;Thermal Model
*SYM=HARJCP
.SUBCKT HUF75333G3T  7       1     ;Rev. May 27, 1997
* Connections    Junction Case
* IsSpice4 Model thermal circuit file for the following parts:
* HUF75333G3
* For a detail specification see datasheet FN4362
* 
* This netlist represents an equivalent electrical circuit of the typical
* junction to case thermal path of the die and package combination. Power
* dissipated in this path is represented by current into the junction node
* Temperature at the case or junction node is represented by the
* voltage level at that node. 
*
CTHERM1 7 6 4.90e-7 IC=0
CTHERM2 6 5 4.50e-4 IC=0
CTHERM3 5 4 1.80e-3 IC=0
CTHERM4 4 3 8.50e-3 IC=0
CTHERM5 3 2 1.35e-1 IC=0
CTHERM6 2 1 3.00 IC=0
RTHERM1 7 6 7.00e-6
RTHERM2 6 5 8.00e-3
RTHERM3 5 4 6.50e-2
RTHERM4 4 3 6.40e-1
RTHERM5 3 2 3.35e-1
RTHERM6 2 1 0.70e-1
.ENDS
**********
*SRC=HUF75333P3T;HUF75333P3T;MOSFETs N;Harris;Thermal Model
*SYM=HARJCP
.SUBCKT HUF75333P3T  7       1     ;Rev. May 27, 1997
* Connections    Junction Case
* IsSpice4 Model thermal circuit file for the following parts:
* HUF75333P3
* For a detail specification see datasheet FN4362
* 
* This netlist represents an equivalent electrical circuit of the typical
* junction to case thermal path of the die and package combination. Power
* dissipated in this path is represented by current into the junction node
* Temperature at the case or junction node is represented by the
* voltage level at that node. 
*
CTHERM1 7 6 4.90e-7 IC=0
CTHERM2 6 5 4.50e-4 IC=0
CTHERM3 5 4 1.80e-3 IC=0
CTHERM4 4 3 8.50e-3 IC=0
CTHERM5 3 2 1.35e-1 IC=0
CTHERM6 2 1 3.00 IC=0
RTHERM1 7 6 7.00e-6
RTHERM2 6 5 8.00e-3
RTHERM3 5 4 6.50e-2
RTHERM4 4 3 6.40e-1
RTHERM5 3 2 3.35e-1
RTHERM6 2 1 0.70e-1
.ENDS
**********
*SRC=HUF75333S3T;HUF75333S3T;MOSFETs N;Harris;Thermal Model
*SYM=HARJCP
.SUBCKT HUF75333S3T  7       1     ;Rev. May 27, 1997
* Connections    Junction Case
* IsSpice4 Model thermal circuit file for the following parts:
* HUF75333S3, HUF75333S3S
* For a detail specification see datasheet FN4362
* 
* This netlist represents an equivalent electrical circuit of the typical
* junction to case thermal path of the die and package combination. Power
* dissipated in this path is represented by current into the junction node
* Temperature at the case or junction node is represented by the
* voltage level at that node. 
*
CTHERM1 7 6 4.90e-7 IC=0
CTHERM2 6 5 4.50e-4 IC=0
CTHERM3 5 4 1.80e-3 IC=0
CTHERM4 4 3 8.50e-3 IC=0
CTHERM5 3 2 1.35e-1 IC=0
CTHERM6 2 1 3.00 IC=0
RTHERM1 7 6 7.00e-6
RTHERM2 6 5 8.00e-3
RTHERM3 5 4 6.50e-2
RTHERM4 4 3 6.40e-1
RTHERM5 3 2 3.35e-1
RTHERM6 2 1 0.70e-1
.ENDS
**********
*SRC=HUF75339G3T;HUF75339G3T;MOSFETs N;Harris;Thermal Model
*SYM=HARJCP
.SUBCKT HUF75339G3T  7       1     ;Rev. June 27, 1997
* Connections    Junction Case
* IsSpice4 Model thermal circuit file for the following parts:
* HUF75339G3
* For a detail specification see datasheet FN4363
* 
* This netlist represents an equivalent electrical circuit of the typical
* junction to case thermal path of the die and package combination. Power
* dissipated in this path is represented by current into the junction node
* Temperature at the case or junction node is represented by the
* voltage level at that node. 
*
CTHERM1 7 6 6.50e-3 IC=0
CTHERM2 6 5 1.00e-3 IC=0
CTHERM3 5 4 2.24e-3 IC=0
CTHERM4 4 3 8.60e-3 IC=0
CTHERM5 3 2 5.80e-2 IC=0
CTHERM6 2 1 2.50 IC=0
RTHERM1 7 6 3.00e-7
RTHERM2 6 5 7.00e-6
RTHERM3 5 4 3.30e-2
RTHERM4 4 3 2.75e-1
RTHERM5 3 2 5.55e-1
RTHERM6 2 1 2.60e-1
.ENDS
**********
*SRC=HUF75339P3T;HUF75339P3T;MOSFETs N;Harris;Thermal Model
*SYM=HARJCP
.SUBCKT HUF75339P3T  7       1     ;Rev. June 27, 1997
* Connections    Junction Case
* IsSpice4 Model thermal circuit file for the following parts:
* HUF75339P3
* For a detail specification see datasheet FN4363
* 
* This netlist represents an equivalent electrical circuit of the typical
* junction to case thermal path of the die and package combination. Power
* dissipated in this path is represented by current into the junction node
* Temperature at the case or junction node is represented by the
* voltage level at that node. 
*
CTHERM1 7 6 6.50e-3 IC=0
CTHERM2 6 5 1.00e-3 IC=0
CTHERM3 5 4 2.24e-3 IC=0
CTHERM4 4 3 8.60e-3 IC=0
CTHERM5 3 2 5.80e-2 IC=0
CTHERM6 2 1 2.50 IC=0
RTHERM1 7 6 3.00e-7
RTHERM2 6 5 7.00e-6
RTHERM3 5 4 3.30e-2
RTHERM4 4 3 2.75e-1
RTHERM5 3 2 5.55e-1
RTHERM6 2 1 2.60e-1
.ENDS
**********
*SRC=HUF75339S3T;HUF75339S3T;MOSFETs N;Harris;Thermal Model
*SYM=HARJCP
.SUBCKT HUF75339S3T  7       1     ;Rev. June 27, 1997
* Connections    Junction Case
* IsSpice4 Model thermal circuit file for the following parts:
* HUF75339S3, HUF75339S3S
* For a detail specification see datasheet FN4363
* 
* This netlist represents an equivalent electrical circuit of the typical
* junction to case thermal path of the die and package combination. Power
* dissipated in this path is represented by current into the junction node
* Temperature at the case or junction node is represented by the
* voltage level at that node. 
*
CTHERM1 7 6 6.50e-3 IC=0
CTHERM2 6 5 1.00e-3 IC=0
CTHERM3 5 4 2.24e-3 IC=0
CTHERM4 4 3 8.60e-3 IC=0
CTHERM5 3 2 5.80e-2 IC=0
CTHERM6 2 1 2.50 IC=0
RTHERM1 7 6 3.00e-7
RTHERM2 6 5 7.00e-6
RTHERM3 5 4 3.30e-2
RTHERM4 4 3 2.75e-1
RTHERM5 3 2 5.55e-1
RTHERM6 2 1 2.60e-1
.ENDS
*SRC=HUF75343G3T;HUF75343G3T;MOSFETs N;Harris;Thermal Model
*SYM=HARJCP
**********.SUBCKT HUF75343G3T  7       1     ;Rev. May 27, 1997
* Connections    Junction Case
* IsSpice4 Model thermal circuit file for the following parts:
* HUF75343G3
* For a detail specification see datasheet FN4364
* 
* This netlist represents an equivalent electrical circuit of the typical
* junction to case thermal path of the die and package combination. Power
* dissipated in this path is represented by current into the junction node
* Temperature at the case or junction node is represented by the
* voltage level at that node. 
*
CTHERM1 7 6 5.00e-7 IC=0
CTHERM2 6 5 7.50e-4 IC=0
CTHERM3 5 4 5.50e-3 IC=0
CTHERM4 4 3 1.80e-2 IC=0
CTHERM5 3 2 1.80e-1 IC=0
CTHERM6 2 1 6.00e-1 IC=0
RTHERM1 7 6 5.00e-6
RTHERM2 6 5 1.38e-2
RTHERM3 5 4 4.50e-2
RTHERM4 4 3 2.45e-1
RTHERM5 3 2 3.80e-1
RTHERM6 2 1 3.00e-1
.ENDS
**********
*SRC=HUF75343P3T;HUF75343P3T;MOSFETs N;Harris;Thermal Model
*SYM=HARJCP
.SUBCKT HUF75343P3T  7       1     ;Rev. May 27, 1997
* Connections    Junction Case
* IsSpice4 Model thermal circuit file for the following parts:
* HUF75343P3
* For a detail specification see datasheet FN4364
* 
* This netlist represents an equivalent electrical circuit of the typical
* junction to case thermal path of the die and package combination. Power
* dissipated in this path is represented by current into the junction node
* Temperature at the case or junction node is represented by the
* voltage level at that node. 
*
CTHERM1 7 6 5.00e-7 IC=0
CTHERM2 6 5 7.50e-4 IC=0
CTHERM3 5 4 5.50e-3 IC=0
CTHERM4 4 3 1.80e-2 IC=0
CTHERM5 3 2 1.80e-1 IC=0
CTHERM6 2 1 6.00e-1 IC=0
RTHERM1 7 6 5.00e-6
RTHERM2 6 5 1.38e-2
RTHERM3 5 4 4.50e-2
RTHERM4 4 3 2.45e-1
RTHERM5 3 2 3.80e-1
RTHERM6 2 1 3.00e-1
.ENDS
**********
*SRC=HUF75343S3T;HUF75343S3T;MOSFETs N;Harris;Thermal Model
*SYM=HARJCP
.SUBCKT HUF75343S3T  7       1     ;Rev. May 27, 1997
* Connections    Junction Case
* IsSpice4 Model thermal circuit file for the following parts:
* HUF75343S3, HUF75343S3S
* For a detail specification see datasheet FN4364
* 
* This netlist represents an equivalent electrical circuit of the typical
* junction to case thermal path of the die and package combination. Power
* dissipated in this path is represented by current into the junction node
* Temperature at the case or junction node is represented by the
* voltage level at that node. 
*
CTHERM1 7 6 5.00e-7 IC=0
CTHERM2 6 5 7.50e-4 IC=0
CTHERM3 5 4 5.50e-3 IC=0
CTHERM4 4 3 1.80e-2 IC=0
CTHERM5 3 2 1.80e-1 IC=0
CTHERM6 2 1 6.00e-1 IC=0
RTHERM1 7 6 5.00e-6
RTHERM2 6 5 1.38e-2
RTHERM3 5 4 4.50e-2
RTHERM4 4 3 2.45e-1
RTHERM5 3 2 3.80e-1
RTHERM6 2 1 3.00e-1
.ENDS
**********
*SRC=HUF75345G3T;HUF75345G3T;MOSFETs N;Harris;Thermal Model
*SYM=HARJCP
.SUBCKT HUF75345G3T  7       1     ;Rev. June 15, 1997
* Connections    Junction Case
* IsSpice4 Model thermal circuit file for the following parts:
* HUF75345G3
* For a detail specification see datasheet FN4365
* 
* This netlist represents an equivalent electrical circuit of the typical
* junction to case thermal path of the die and package combination. Power
* dissipated in this path is represented by current into the junction node
* Temperature at the case or junction node is represented by the
* voltage level at that node. 
*
CTHERM1 7 6 5.00e-5 IC=0
CTHERM2 6 5 2.00e-3 IC=0
CTHERM3 5 4 8.50e-3 IC=0
CTHERM4 4 3 3.20e-2 IC=0
CTHERM5 3 2 8.50e-2 IC=0
CTHERM6 2 1 5.50e-1 IC=0
RTHERM1 7 6 1.55e-3
RTHERM2 6 5 3.30e-3
RTHERM3 5 4 1.50e-2
RTHERM4 4 3 4.50e-2
RTHERM5 3 2 1.50e-1
RTHERM6 2 1 1.65e-1
.ENDS
**********
*SRC=HUF75345P3T;HUF75345P3T;MOSFETs N;Harris;Thermal Model
*SYM=HARJCP
.SUBCKT HUF75345P3T  7       1     ;Rev. June 15, 1997
* Connections    Junction Case
* IsSpice4 Model thermal circuit file for the following parts:
* HUF75345P3
* For a detail specification see datasheet FN4365
* 
* This netlist represents an equivalent electrical circuit of the typical
* junction to case thermal path of the die and package combination. Power
* dissipated in this path is represented by current into the junction node
* Temperature at the case or junction node is represented by the
* voltage level at that node. 
*
CTHERM1 7 6 5.00e-5 IC=0
CTHERM2 6 5 2.00e-3 IC=0
CTHERM3 5 4 8.50e-3 IC=0
CTHERM4 4 3 3.20e-2 IC=0
CTHERM5 3 2 8.50e-2 IC=0
CTHERM6 2 1 5.50e-1 IC=0
RTHERM1 7 6 1.55e-3
RTHERM2 6 5 3.30e-3
RTHERM3 5 4 1.50e-2
RTHERM4 4 3 4.50e-2
RTHERM5 3 2 1.50e-1
RTHERM6 2 1 1.65e-1
.ENDS
**********
*SRC=HUF75345S3T;HUF75345S3T;MOSFETs N;Harris;Thermal Model
*SYM=HARJCP
.SUBCKT HUF75345S3T  7       1     ;Rev. June 15, 1997
* Connections    Junction Case
* IsSpice4 Model thermal circuit file for the following parts:
* HUF75345S3, HUF75345S3S
* For a detail specification see datasheet FN4365
* 
* This netlist represents an equivalent electrical circuit of the typical
* junction to case thermal path of the die and package combination. Power
* dissipated in this path is represented by current into the junction node
* Temperature at the case or junction node is represented by the
* voltage level at that node. 
*
CTHERM1 7 6 5.00e-5 IC=0
CTHERM2 6 5 2.00e-3 IC=0
CTHERM3 5 4 8.50e-3 IC=0
CTHERM4 4 3 3.20e-2 IC=0
CTHERM5 3 2 8.50e-2 IC=0
CTHERM6 2 1 5.50e-1 IC=0
RTHERM1 7 6 1.55e-3
RTHERM2 6 5 3.30e-3
RTHERM3 5 4 1.50e-2
RTHERM4 4 3 4.50e-2
RTHERM5 3 2 1.50e-1
RTHERM6 2 1 1.65e-1
.ENDS
**********
*SRC=RFD20N03T;RFD20N03T;MOSFETs N;Harris;Thermal Model
*SYM=HARJCP
.SUBCKT RFD20N03T  7       1     ;Rev. July 28, 1997
* Connections    Junction Case
* IsSpice4 Model thermal circuit file for the following parts:
* RFD20N03, RFD20N03SM
* 
* This netlist represents an equivalent electrical circuit of the typical
* junction to case thermal path of the die and package combination. Power
* dissipated in this path is represented by current into the junction node
* Temperature at the case or junction node is represented by the
* voltage level at that node. 
*
CTHERM1 7 6 9.90e-7 IC=0
CTHERM2 6 5 1.50e-3 IC=0
CTHERM3 5 4 2.20e-3 IC=0
CTHERM4 4 3 5.70e-2 IC=0
CTHERM5 3 2 7.50e-2 IC=0
CTHERM6 2 1 5.40e-1 IC=0
RTHERM1 7 6 8.00e-3
RTHERM2 6 5 2.30e-2
RTHERM3 5 4 9.00e-2
RTHERM4 4 3 6.90e-1
RTHERM5 3 2 6.10e-1
RTHERM6 2 1 8.00e-2
.ENDS
**********
*SRC=RFP42N03T;RFP42N03T;MOSFETs N;Harris;Thermal Model
*SYM=HARJCP
.SUBCKT RFP42N03T  7       1     ;Rev. July 28, 1997
* Connections    Junction Case
* IsSpice4 Model thermal circuit file for the following parts:
* RFP42N03
* 
* This netlist represents an equivalent electrical circuit of the typical
* junction to case thermal path of the die and package combination. Power
* dissipated in this path is represented by current into the junction node
* Temperature at the case or junction node is represented by the
* voltage level at that node. 
*
CTHERM1 7 6 9.90e-7 IC=0
CTHERM2 6 5 1.50e-3 IC=0
CTHERM3 5 4 2.20e-3 IC=0
CTHERM4 4 3 5.70e-2 IC=0
CTHERM5 3 2 7.50e-2 IC=0
CTHERM6 2 1 5.40e-1 IC=0
RTHERM1 7 6 8.00e-3
RTHERM2 6 5 2.30e-2
RTHERM3 5 4 9.00e-2
RTHERM4 4 3 6.90e-1
RTHERM5 3 2 6.10e-1
RTHERM6 2 1 8.00e-2
.ENDS
**********
*SRC=RF1S42N03T;RF1S42N03T;MOSFETs N;Harris;Thermal Model
*SYM=HARJCP
.SUBCKT RF1S42N03T  7       1     ;Rev. July 28, 1997
* Connections    Junction Case
* IsSpice4 Model thermal circuit file for the following parts:
* RF1S42N03, RF1S42N03SM
* 
* This netlist represents an equivalent electrical circuit of the typical
* junction to case thermal path of the die and package combination. Power
* dissipated in this path is represented by current into the junction node
* Temperature at the case or junction node is represented by the
* voltage level at that node. 
*
CTHERM1 7 6 9.90e-7 IC=0
CTHERM2 6 5 1.50e-3 IC=0
CTHERM3 5 4 2.20e-3 IC=0
CTHERM4 4 3 5.70e-2 IC=0
CTHERM5 3 2 7.50e-2 IC=0
CTHERM6 2 1 5.40e-1 IC=0
RTHERM1 7 6 8.00e-3
RTHERM2 6 5 2.30e-2
RTHERM3 5 4 9.00e-2
RTHERM4 4 3 6.90e-1
RTHERM5 3 2 6.10e-1
RTHERM6 2 1 8.00e-2
.ENDS
**********
*SRC=HUF75307T3T;HUF75307T3T;MOSFETs N;Harris;Thermal Model
*SYM=HARJCP
.SUBCKT HUF75307T3T    7       1     ;Rev. July 25, 1997
* Connections       Junction Case
* IsSpice4 Model thermal circuit file for the following parts:
* HUF75307T3ST
* 
* This netlist represents an equivalent electrical circuit of the typical
* junction to case thermal path of the die and package combination. Power
* dissipated in this path is represented by current into the junction node
* Temperature at the case or junction node is represented by the
* voltage level at that node. 
*
CTHERM1 7 6 6.50e-7 IC=0
CTHERM2 6 5 3.00e-4 IC=0
CTHERM3 5 4 1.50e-3 IC=0
CTHERM4 4 3 2.50e-2 IC=0