***********
* The following is a list of Harris UltraFET Power Mosfet IsSpice4 compatible models
* contained in this library file. In the case of a surface mount package variant,
* designated by a suffix of "S" , use the base part number for the subcircuit
* call function.
*
* File revised on 8/15/97
*
* HUF75307P3   HUF75307D3    HUF75307D3S    HUF75307T3ST   HUF75309P3
* HUF75309D3   HUF75309D3S   HUF75309T3ST   HUF75321D3     HUF75321D3S
* HUF75321P3   HUF75321S3    HUF75321S3S    HUF75329G3     HUF75329P3
* HUF75329S3   HUF75329S3S   HUF75333G3     HUF75333P3     HUF75333S3
* HUF75333S3S  HUF75339G3    HUF75339P3     HUF75339S3     HUF75339S3S
* HUF75343G3   HUF75343P3    HUF75343S3     HUF75343S3S    HUF75345G3
* HUF75345P3   HUF75345S3    HUF75345S3S
*
**********
*SRC=HUF75307P3h;HUF75307P3h;MOSFETs N;Harris;UltraFet
*SYM=POWMOSN
.SUBCKT HUF75307P3h 2 1 3 ; REV 6/1/97
* Term. Conn.*      D G S
* IsSpice4 Model circuit file for the following part: HUF75307P3
Ca 12 8 4.50e-10
Cb 15 14 4.10e-10
Cin 6 8 2.154e-10
Dbody 7 5 DBODYMOD
Dbreak 5 11 DBREAKMOD
Dplcap 10 5 DPLCAPMOD
Ebreak 11 7 17 18 56.00
Eds 14 8 5 8 1
Egs 13 8 6 8 1
Esg 6 10 6 8 1
BEslc 51 50 V= (V(5,51)/ABS(V(5,51)))*((V(5,51)/(1E-6*35))^4.0)
Evthres 6 21 19 8 1
Evtemp 20 6 18 22 1
It 8 17 1
Ldrain 2 5 1.00e-9
Lgate 1 9 5.97e-10
Lsource 3 7 2.39e-9
K1 Lgate Lsource 0.131
Mmed 16 6 8 8 MMEDMOD L=1u W=1u
Mstro 16 6 8 8 MSTROMOD L=1u W=1u
Mweak 16 21 8 8 MWEAKMOD L=1u W=1u
Rbreak 17 18 RBREAKMOD 1
Rdrain 50 16 RDRAINMOD 1.00e-3
Rgate 9 20 1.90
RLdrain 2 5 10.0
RLgate 1 9 60.0
RLsource 3 7 24.0
Rslc1 5 51 RSLCMOD 1e-6
Rslc2 5 50 1e3
Rsource 8 7 RSOURCEMOD 5.50e-2
Rvthres 22 8 RVTHRESMOD 1
Rvtemp 18 19 RVTEMPMOD 1
AS1a 6 12 13 8 S1AMOD
AS1b 13 12 13 8 S1BMOD
AS2a 6 15 14 13 S2AMOD
AS2b 13 15 14 13 S2BMOD
Vbat 22 19 DC 1
.MODEL DBODYMOD D (IS=1.60e-13 RS=12.75e-3 N=0.985 
+ CJO=3.50e-10 TT=3.10e-8 M=0.45 XTI=6.0) ; IKF=5.5 TRS1=2.90e-3 TRS2=-4.00e-6
.MODEL DBREAKMOD D (RS=2.50e-1) ; IKF=0.1 TRS1=-4.00e-3 TRS2=3.00e-5
.MODEL DPLCAPMOD D (CJO=5.00e-10 IS=1e-30 N=10 M=0.95)
.MODEL MMEDMOD NMOS (VTO=3.250 KP=2.20 LAMBDA=0.001 IS=1e-30 TOX=1) ; RG=1.00
.MODEL MSTROMOD NMOS (VTO=3.75 KP=14.75 LAMBDA=0.001 IS=1e-30 TOX=1)
.MODEL MWEAKMOD NMOS (VTO=2.880 KP=0.030 LAMBDA=0.001 IS=1e-30 TOX=1 RS=0.1) ;  RG=10.0 
.MODEL RBREAKMOD R (TC1=1.12e-3 TC2=1.00e-6)
.MODEL RDRAINMOD R (TC1=2.31e-1 TC2=6.00e-4)
.MODEL RSLCMOD R (TC1=4.00e-3 TC2=1.00e-6)
.MODEL RSOURCEMOD R (TC1=1.00e-3 TC2=-1.49e-5)
.MODEL RVTHRESMOD R (TC1=-3.31e-3 TC2=-1.49e-5)
.MODEL RVTEMPMOD R (TC1=-1.43e-3 TC2=1.00e-9)
.MODEL S1AMOD VSWITCH(RON=1e-5 ROFF=0.1 VON=-8.10 VOFF=-4.00)
.MODEL S1BMOD VSWITCH(RON=1e-5 ROFF=0.1 VON=-4.00 VOFF=-8.10)
.MODEL S2AMOD VSWITCH(RON=1e-5 ROFF=0.1 VON=-1.00 VOFF=2.00)
.MODEL S2BMOD VSWITCH(RON=1e-5 ROFF=0.1 VON=2.00 VOFF=-1.00)
.ENDS
**********
*SRC=HUF75307D3h;HUF75307D3h;MOSFETs N;Harris;UltraFet
*SYM=POWMOSN
.SUBCKT HUF75307D3h 2 1 3 ; REV 6/1/97
* Term. Conn.*      D G S
* IsSpice4 Model circuit file for the following parts: HUF75307D3, HUF75307D3S
Ca 12 8 4.50e-10
Cb 15 14 4.10e-10
Cin 6 8 2.154e-10
Dbody 7 5 DBODYMOD
Dbreak 5 11 DBREAKMOD
Dplcap 10 5 DPLCAPMOD
Ebreak 11 7 17 18 56.00
Eds 14 8 5 8 1
Egs 13 8 6 8 1
Esg 6 10 6 8 1
BEslc 51 50 V= (V(5,51)/ABS(V(5,51)))*((V(5,51)/(1E-6*35))^4.0)
Evthres 6 21 19 8 1
Evtemp 20 6 18 22 1
It 8 17 1
Ldrain 2 5 1.00e-9
Lgate 1 9 5.97e-10
Lsource 3 7 2.39e-9
K1 Lgate Lsource 0.131
Mmed 16 6 8 8 MMEDMOD L=1u W=1u
Mstro 16 6 8 8 MSTROMOD L=1u W=1u
Mweak 16 21 8 8 MWEAKMOD L=1u W=1u
Rbreak 17 18 RBREAKMOD 1
Rdrain 50 16 RDRAINMOD 1.00e-3
Rgate 9 20 1.90
RLdrain 2 5 10.0
RLgate 1 9 60.0
RLsource 3 7 24.0
Rslc1 5 51 RSLCMOD 1e-6
Rslc2 5 50 1e3
Rsource 8 7 RSOURCEMOD 5.50e-2
Rvthres 22 8 RVTHRESMOD 1
Rvtemp 18 19 RVTEMPMOD 1
AS1a 6 12 13 8 S1AMOD
AS1b 13 12 13 8 S1BMOD
AS2a 6 15 14 13 S2AMOD
AS2b 13 15 14 13 S2BMOD
Vbat 22 19 DC 1
.MODEL DBODYMOD D (IS=1.60e-13 RS=12.75e-3 N=0.985 
+ CJO=3.50e-10 TT=3.10e-8 M=0.45 XTI=6.0) ; IKF=5.5 TRS1=2.90e-3 TRS2=-4.00e-6
.MODEL DBREAKMOD D (RS=2.50e-1) ; IKF=0.1 TRS1=-4.00e-3 TRS2=3.00e-5
.MODEL DPLCAPMOD D (CJO=5.00e-10 IS=1e-30 N=10 M=0.95)
.MODEL MMEDMOD NMOS (VTO=3.250 KP=2.20 LAMBDA=0.001 IS=1e-30 TOX=1) ; RG=1.00
.MODEL MSTROMOD NMOS (VTO=3.75 KP=14.75 LAMBDA=0.001 IS=1e-30 TOX=1)
.MODEL MWEAKMOD NMOS (VTO=2.880 KP=0.030 LAMBDA=0.001 IS=1e-30 TOX=1 RS=0.1) ; RG=10.0 
.MODEL RBREAKMOD R (TC1=1.12e-3 TC2=1.00e-6)
.MODEL RDRAINMOD R (TC1=2.31e-1 TC2=6.00e-4)
.MODEL RSLCMOD R (TC1=4.00e-3 TC2=1.00e-6)
.MODEL RSOURCEMOD R (TC1=1.00e-3 TC2=-1.49e-5)
.MODEL RVTHRESMOD R (TC1=-3.31e-3 TC2=-1.49e-5)
.MODEL RVTEMPMOD R (TC1=-1.43e-3 TC2=1.00e-9)
.MODEL S1AMOD VSWITCH(RON=1e-5 ROFF=0.1 VON=-8.10 VOFF=-4.00)
.MODEL S1BMOD VSWITCH(RON=1e-5 ROFF=0.1 VON=-4.00 VOFF=-8.10)
.MODEL S2AMOD VSWITCH(RON=1e-5 ROFF=0.1 VON=-1.00 VOFF=2.00)
.MODEL S2BMOD VSWITCH(RON=1e-5 ROFF=0.1 VON=2.00 VOFF=-1.00)
.ENDS
**********
*SRC=HUF75309P3h;HUF75309P3h;MOSFETs N;Harris;UltraFet
*SYM=POWMOSN
.SUBCKT HUF75309P3h  2 1 3 ; REV 5/30/97
*Term. Conn.**       D G S
* IsSpice4 Model circuit file for the following part: HUF75309P3
Ca 12 8 3.85e-10
Cb 15 14 4.15e-10
Cin 6 8 3.17e-10
Dbody 7 5 DBODYMOD
Dbreak 5 11 DBREAKMOD
Dplcap 10 5 DPLCAPMOD
Ebreak 11 7 17 18 59.22
Eds 14 8 5 8 1
Egs 13 8 6 8 1
Esg 6 10 6 8 1
BEslc 51 50 V= (V(5,51)/ABS(V(5,51)))*((V(5,51)/(1E-6*43))^4.5)
Evthres 6 21 19 8 1
Evtemp 20 6 18 22 1
It 8 17 1
Ldrain 2 5 1e-9
Lgate 1 9 2.24e-9
Lsource 3 7 2.09e-9
Mmed 16 6 8 8 MMEDMOD L=1u W=1u
Mstro 16 6 8 8 MSTROMOD L=1u W=1u
Mweak 16 21 8 8 MWEAKMOD L=1u W=1u
Rbreak 17 18 RBREAKMOD 1
Rdrain 50 16 RDRAINMOD 5.00e-3
Rgate 9 20 1.27
RLdrain 2 5 10
RLgate 1 9 22.4
RLsource 3 7 20.9
Rslc1 5 51 RSLCMOD 1e-6
Rslc2 5 50 1e3
Rsource 8 7 RSOURCEMOD 39.99e-3
Rvthres 22 8 RVTHRESMOD 1
Rvtemp 18 19 RVTEMPMOD 1
AS1a 6 12 13 8 S1AMOD
AS1b 13 12 13 8 S1BMOD
AS2a 6 15 14 13 S2AMOD
AS2b 13 15 14 13 S2BMOD
Vbat 22 19 DC 1
.MODEL DBODYMOD D (IS=3.00e-13 RS=1.04e-2 
+ CJO=5.25e-10 TT=3.09e-8 M=0.50) ; TRS1=1.89e-3 TRS2=0
.MODEL DBREAKMOD D (RS=2.66e-1) ; TRS1=1.31e-4 TRS2=1.34e-5
.MODEL DPLCAPMOD D (CJO=3.80e-10 IS=1e-30 N=10 M=0.79)
.MODEL MMEDMOD NMOS (VTO=3.450 KP=2.00 IS=1e-30 TOX=1) ; RG=1.27
.MODEL MSTROMOD NMOS (VTO=3.95 KP=19.0 IS=1e-30 TOX=1)
.MODEL MWEAKMOD NMOS (VTO=3.050 KP=0.050 IS=1e-30 TOX=1 RS=0.1) ; RG=12.7 
.MODEL RBREAKMOD R (TC1=1.05e-3 TC2=1.21e-7)
.MODEL RDRAINMOD R (TC1=5.19e-2 TC2=9.96e-5)
.MODEL RSLCMOD R (TC1=2.71e-3 TC2=1.07e-5)
.MODEL RSOURCEMOD R (TC1=0 TC2=0)
.MODEL RVTHRESMOD R (TC1=-3.31e-3 TC2=-4.31e-6)
.MODEL RVTEMPMOD R (TC1=-1.62e-3 TC2=-1.29e-6)
.MODEL S1AMOD VSWITCH(RON=1e-5 ROFF=0.1 VON=-6.00 VOFF=-3.00)
.MODEL S1BMOD VSWITCH(RON=1e-5 ROFF=0.1 VON=-3.00 VOFF=-6.00)
.MODEL S2AMOD VSWITCH(RON=1e-5 ROFF=0.1 VON=1.90 VOFF=4.90)
.MODEL S2BMOD VSWITCH(RON=1e-5 ROFF=0.1 VON=4.90 VOFF=1.90)
.ENDS
**********
*SRC=HUF75309D3h;HUF75309D3h;MOSFETs N;Harris;UltraFet
*SYM=POWMOSN
.SUBCKT HUF75309D3h  2 1 3 ; REV 5/30/97
*Term. Conn.**       D G S
* IsSpice4 Model circuit file for the following part: HUF75309D3, HUF75309D3S
Ca 12 8 3.85e-10
Cb 15 14 4.15e-10
Cin 6 8 3.17e-10
Dbody 7 5 DBODYMOD
Dbreak 5 11 DBREAKMOD
Dplcap 10 5 DPLCAPMOD
Ebreak 11 7 17 18 59.22
Eds 14 8 5 8 1
Egs 13 8 6 8 1
Esg 6 10 6 8 1
BEslc 51 50 V= (V(5,51)/ABS(V(5,51)))*((V(5,51)/(1E-6*43))^4.5)
Evthres 6 21 19 8 1
Evtemp 20 6 18 22 1
It 8 17 1
Ldrain 2 5 1e-9
Lgate 1 9 2.24e-9
Lsource 3 7 2.09e-9
Mmed 16 6 8 8 MMEDMOD L=1u W=1u
Mstro 16 6 8 8 MSTROMOD L=1u W=1u
Mweak 16 21 8 8 MWEAKMOD L=1u W=1u
Rbreak 17 18 RBREAKMOD 1
Rdrain 50 16 RDRAINMOD 5.00e-3
Rgate 9 20 1.27
RLdrain 2 5 10
RLgate 1 9 22.4
RLsource 3 7 20.9
Rslc1 5 51 RSLCMOD 1e-6
Rslc2 5 50 1e3
Rsource 8 7 RSOURCEMOD 39.99e-3
Rvthres 22 8 RVTHRESMOD 1
Rvtemp 18 19 RVTEMPMOD 1
AS1a 6 12 13 8 S1AMOD
AS1b 13 12 13 8 S1BMOD
AS2a 6 15 14 13 S2AMOD
AS2b 13 15 14 13 S2BMOD
Vbat 22 19 DC 1
.MODEL DBODYMOD D (IS=3.00e-13 RS=1.04e-2 
+ CJO=5.25e-10 TT=3.09e-8 M=0.50) ; TRS1=1.89e-3 TRS2=0
.MODEL DBREAKMOD D (RS=2.66e-1) ; TRS1=1.31e-4 TRS2=1.34e-5
.MODEL DPLCAPMOD D (CJO=3.80e-10 IS=1e-30 N=10 M=0.79)
.MODEL MMEDMOD NMOS (VTO=3.450 KP=2.00 IS=1e-30 TOX=1) ; RG=1.27
.MODEL MSTROMOD NMOS (VTO=3.95 KP=19.0 IS=1e-30 TOX=1)
.MODEL MWEAKMOD NMOS (VTO=3.050 KP=0.050 IS=1e-30 TOX=1 RS=0.1) ; RG=12.7 
.MODEL RBREAKMOD R (TC1=1.05e-3 TC2=1.21e-7)
.MODEL RDRAINMOD R (TC1=5.19e-2 TC2=9.96e-5)
.MODEL RSLCMOD R (TC1=2.71e-3 TC2=1.07e-5)
.MODEL RSOURCEMOD R (TC1=0 TC2=0)
.MODEL RVTHRESMOD R (TC1=-3.31e-3 TC2=-4.31e-6)
.MODEL RVTEMPMOD R (TC1=-1.62e-3 TC2=-1.29e-6)
.MODEL S1AMOD VSWITCH(RON=1e-5 ROFF=0.1 VON=-6.00 VOFF=-3.00)
.MODEL S1BMOD VSWITCH(RON=1e-5 ROFF=0.1 VON=-3.00 VOFF=-6.00)
.MODEL S2AMOD VSWITCH(RON=1e-5 ROFF=0.1 VON=1.90 VOFF=4.90)
.MODEL S2BMOD VSWITCH(RON=1e-5 ROFF=0.1 VON=4.90 VOFF=1.90)
.ENDS
**********
*SRC=HUF75321D3h;HUF75321D3h;MOSFETs N;Harris;UltraFet
*SYM=POWMOSN
.SUBCKT HUF75321D3h 2 1 3 ; REV 6/18/97
* Term. Conn.*      D G S
* IsSpice4 Model circuit file for the following parts: HUF75321D3,HUF75321D3S
Ca 12 8 9.05e-10
Cb 15 14 8.95e-10
Cin 6 8 6.28e-10
Dbody 7 5 DBODYMOD
Dbreak 5 11 DBREAKMOD
Dplcap 10 5 DPLCAPMOD
Ebreak 11 7 17 18 58.39
Eds 14 8 5 8 1
Egs 13 8 6 8 1
Esg 6 10 6 8 1
BEslc 51 50 V= (V(5,51)/ABS(V(5,51)))*((V(5,51)/(1E-6*118))^2.5)
Evthres 6 21 19 8 1
Evtemp 20 6 18 22 1
It 8 17 1
Ldrain 2 5 1.00e-9
Lgate 1 9 2.40e-9
Lsource 3 7 3.14e-9
Mmed 16 6 8 8 MMEDMOD L=1u W=1u
Mstro 16 6 8 8 MSTROMOD L=1u W=1u
Mweak 16 21 8 8 MWEAKMOD L=1u W=1u
Rbreak 17 18 RBREAKMOD 1
Rdrain 50 16 RDRAINMOD 3.50e-3
Rgate 9 20 1.24
RLdrain 2 5 10.0
RLgate 1 9 24.0
RLsource 3 7 31.4
Rslc1 5 51 RSLCMOD 1e-6
Rslc2 5 50 1e3
Rsource 8 7 RSOURCEMOD 19.35e-3
Rvthres 22 8 RVTHRESMOD 1
Rvtemp 18 19 RVTEMPMOD 1
AS1a 6 12 13 8 S1AMOD
AS1b 13 12 13 8 S1BMOD
AS2a 6 15 14 13 S2AMOD
AS2b 13 15 14 13 S2BMOD
Vbat 22 19 DC 1
.MODEL DBODYMOD D (IS=1.14e-12 RS=9.51e-3 
+ CJO=1.10e-9 TT=3.45e-8 M=0.53) ; TRS1=1.96e-3 TRS2=2.64e-6
.MODEL DBREAKMOD D (RS=1.65e-1) ; TRS1=4.83e-3 TRS2=0
.MODEL DPLCAPMOD D (CJO=9.00e-10 IS=1e-30 N=10 M=0.85)
.MODEL MMEDMOD NMOS (VTO=3.250 KP=1.75 IS=1e-30 TOX=1) ; RG=1.24
.MODEL MSTROMOD NMOS (VTO=3.65 KP=32.00 IS=1e-30 TOX=1)
.MODEL MWEAKMOD NMOS (VTO=2.910 KP=0.070 IS=1e-30 TOX=1 RS=0.1) ; RG=12.4 
.MODEL RBREAKMOD R (TC1=9.16e-4 TC2=1.45e-6)
.MODEL RDRAINMOD R (TC1=2.67e-2 TC2=1.60e-4)
.MODEL RSLCMOD R (TC1=3.86e-3 TC2=1.26e-5)
.MODEL RSOURCEMOD R (TC1=0 TC2=0)
.MODEL RVTHRESMOD R (TC1=-3.37e-3 TC2=-9.72e-6)
.MODEL RVTEMPMOD R (TC1=-1.72e-3 TC2=1.31e-6)
.MODEL S1AMOD VSWITCH(RON=1e-5 ROFF=0.1 VON=-8.15 VOFF=-5.15)
.MODEL S1BMOD VSWITCH(RON=1e-5 ROFF=0.1 VON=-5.15 VOFF=-8.15)
.MODEL S2AMOD VSWITCH(RON=1e-5 ROFF=0.1 VON=1.00 VOFF=4.00)
.MODEL S2BMOD VSWITCH(RON=1e-5 ROFF=0.1 VON=4.00 VOFF=1.00)
.ENDS
**********
*SRC=HUF75321P3h;HUF75321P3h;MOSFETs N;Harris;UltraFet
*SYM=POWMOSN
.SUBCKT HUF75321P3h 2 1 3 ; REV 6/17/97
* Term. Conn.*      D G S
* IsSpice4 Model circuit file for the following parts: HUF75321P3
Ca 12 8 9.96e-10
Cb 15 14 9.83e-10
Cin 6 8 6.18e-10
Dbody 7 5 DBODYMOD
Dbreak 5 11 DBREAKMOD
Dplcap 10 5 DPLCAPMOD
Ebreak 11 7 17 18 59.54
Eds 14 8 5 8 1
Egs 13 8 6 8 1
Esg 6 10 6 8 1
BEslc 51 50 V= (V(5,51)/ABS(V(5,51)))*((V(5,51)/(1E-6*101))^2.5)
Evthres 6 21 19 8 1
Evtemp 20 6 18 22 1
It 8 17 1
Ldrain 2 5 1.00e-9
Lgate 1 9 3.57e-9
Lsource 3 7 4.25e-9
Mmed 16 6 8 8 MMEDMOD L=1u W=1u
Mstro 16 6 8 8 MSTROMOD L=1u W=1u
Mweak 16 21 8 8 MWEAKMOD L=1u W=1u
Rbreak 17 18 RBREAKMOD 1
Rdrain 50 16 RDRAINMOD 3.50e-3
Rgate 9 20 2.25
RLdrain 2 5 10.0
RLgate 1 9 35.7
RLsource 3 7 42.5
Rslc1 5 51 RSLCMOD 1e-6
Rslc2 5 50 1e3
Rsource 8 7 RSOURCEMOD 16.30e-3
Rvthres 22 8 RVTHRESMOD 1
Rvtemp 18 19 RVTEMPMOD 1
AS1a 6 12 13 8 S1AMOD
AS1b 13 12 13 8 S1BMOD
AS2a 6 15 14 13 S2AMOD
AS2b 13 15 14 13 S2BMOD
Vbat 22 19 DC 1
.MODEL DBODYMOD D (IS=7.47e-13 RS=6.45e-3 
+ CJO=1.02e-9 TT=3.21e-8 M=0.50) ; TRS1=2.01e-3 TRS2=1.21e-6
.MODEL DBREAKMOD D (RS=2.01e-1) ; TRS1=3.62e-3 TRS2=6.01E-7
.MODEL DPLCAPMOD D (CJO=9.00e-10 IS=1e-30 N=10 M=0.85)
.MODEL MMEDMOD NMOS (VTO=3.250 KP=1.75 IS=1e-30 TOX=1) ; RG=2.25
.MODEL MSTROMOD NMOS (VTO=3.65 KP=32.00 IS=1e-30 TOX=1)
.MODEL MWEAKMOD NMOS (VTO=2.910 KP=0.070 IS=1e-30 TOX=1 RS=0.1) ; RG=22.5 
.MODEL RBREAKMOD R (TC1=1.05e-3 TC2=1.21e-7)
.MODEL RDRAINMOD R (TC1=3.49e-2 TC2=2.53e-5)
.MODEL RSLCMOD R (TC1=2.07e-4 TC2=4.67e-5)
.MODEL RSOURCEMOD R (TC1=0 TC2=0)
.MODEL RVTHRESMOD R (TC1=-3.01e-3 TC2=-8.85e-6)
.MODEL RVTEMPMOD R (TC1=-1.96e-3 TC2=1.39e-6)
.MODEL S1AMOD VSWITCH(RON=1e-5 ROFF=0.1 VON=-7.85 VOFF=-4.85)
.MODEL S1BMOD VSWITCH(RON=1e-5 ROFF=0.1 VON=-4.85 VOFF=-7.85)
.MODEL S2AMOD VSWITCH(RON=1e-5 ROFF=0.1 VON=0.00 VOFF=3.00)
.MODEL S2BMOD VSWITCH(RON=1e-5 ROFF=0.1 VON=3.00 VOFF=0.00)
.ENDS
**********
*SRC=HUF75321S3h;HUF75321S3h;MOSFETs N;Harris;UltraFet
*SYM=POWMOSN
.SUBCKT HUF75321S3h 2 1 3 ; REV 6/17/97
* Term. Conn.*      D G S
* IsSpice4 Model circuit file for the following parts: HUF75321S3, HUF75321S3S
Ca 12 8 9.96e-10
Cb 15 14 9.83e-10
Cin 6 8 6.18e-10
Dbody 7 5 DBODYMOD
Dbreak 5 11 DBREAKMOD
Dplcap 10 5 DPLCAPMOD
Ebreak 11 7 17 18 59.54
Eds 14 8 5 8 1
Egs 13 8 6 8 1
Esg 6 10 6 8 1
BEslc 51 50 V= (V(5,51)/ABS(V(5,51)))*((V(5,51)/(1E-6*101))^2.5)
Evthres 6 21 19 8 1
Evtemp 20 6 18 22 1
It 8 17 1
Ldrain 2 5 1.00e-9
Lgate 1 9 3.57e-9
Lsource 3 7 4.25e-9
Mmed 16 6 8 8 MMEDMOD L=1u W=1u
Mstro 16 6 8 8 MSTROMOD L=1u W=1u
Mweak 16 21 8 8 MWEAKMOD L=1u W=1u
Rbreak 17 18 RBREAKMOD 1
Rdrain 50 16 RDRAINMOD 3.50e-3
Rgate 9 20 2.25
RLdrain 2 5 10.0
RLgate 1 9 35.7
RLsource 3 7 42.5
Rslc1 5 51 RSLCMOD 1e-6
Rslc2 5 50 1e3
Rsource 8 7 RSOURCEMOD 16.30e-3
Rvthres 22 8 RVTHRESMOD 1
Rvtemp 18 19 RVTEMPMOD 1
AS1a 6 12 13 8 S1AMOD
AS1b 13 12 13 8 S1BMOD
AS2a 6 15 14 13 S2AMOD
AS2b 13 15 14 13 S2BMOD
Vbat 22 19 DC 1
.MODEL DBODYMOD D (IS=7.47e-13 RS=6.45e-3 
+ CJO=1.02e-9 TT=3.21e-8 M=0.50) ; TRS1=2.01e-3 TRS2=1.21e-6
.MODEL DBREAKMOD D (RS=2.01e-1) ; TRS1=3.62e-3 TRS2=6.01E-7
.MODEL DPLCAPMOD D (CJO=9.00e-10 IS=1e-30 N=10 M=0.85)
.MODEL MMEDMOD NMOS (VTO=3.250 KP=1.75 IS=1e-30 TOX=1) ; RG=2.25
.MODEL MSTROMOD NMOS (VTO=3.65 KP=32.00 IS=1e-30 TOX=1)
.MODEL MWEAKMOD NMOS (VTO=2.910 KP=0.070 IS=1e-30 TOX=1 RS=0.1) ; RG=22.5 
.MODEL RBREAKMOD R (TC1=1.05e-3 TC2=1.21e-7)
.MODEL RDRAINMOD R (TC1=3.49e-2 TC2=2.53e-5)
.MODEL RSLCMOD R (TC1=2.07e-4 TC2=4.67e-5)
.MODEL RSOURCEMOD R (TC1=0 TC2=0)
.MODEL RVTHRESMOD R (TC1=-3.01e-3 TC2=-8.85e-6)
.MODEL RVTEMPMOD R (TC1=-1.96e-3 TC2=1.39e-6)
.MODEL S1AMOD VSWITCH(RON=1e-5 ROFF=0.1 VON=-7.85 VOFF=-4.85)
.MODEL S1BMOD VSWITCH(RON=1e-5 ROFF=0.1 VON=-4.85 VOFF=-7.85)
.MODEL S2AMOD VSWITCH(RON=1e-5 ROFF=0.1 VON=0.00 VOFF=3.00)
.MODEL S2BMOD VSWITCH(RON=1e-5 ROFF=0.1 VON=3.00 VOFF=0.00)
.ENDS
**********
*SRC=HUF75329G3h;HUF75329G3h;MOSFETs N;Harris;UltraFet
*SYM=POWMOSN
.SUBCKT HUF75329G3h 2 1 3 ; REV 6/18/97
* Term. Conn.*      D G S
* IsSpice4 Model circuit file for the following part: HUF75329G3
Ca 12 8 1.72e-9
Cb 15 14 1.52e-9
Cin 6 8 9.61e-10
Dbody 7 5 DBODYMOD
Dbreak 5 11 DBREAKMOD
Dplcap 10 5 DPLCAPMOD
Ebreak 11 7 17 18 58.13
Eds 14 8 5 8 1
Egs 13 8 6 8 1
Esg 6 10 6 8 1
BEslc 51 50 V= (V(5,51)/ABS(V(5,51)))*((V(5,51)/(1E-6*135))^3.5)
Evthres 6 21 19 8 1
Evtemp 20 6 18 22 1
It 8 17 1
Ldrain 2 5 1.00e-9
Lgate 1 9 2.86e-9
Lsource 3 7 2.69e-9
Mmed 16 6 8 8 MMEDMOD L=1u W=1u
Mstro 16 6 8 8 MSTROMOD L=1u W=1u
Mweak 16 21 8 8 MWEAKMOD L=1u W=1u
Rbreak 17 18 RBREAKMOD 1
Rdrain 50 16 RDRAINMOD 1.00e-3
Rgate 9 20 1.52
RLdrain 2 5 10.0
RLgate 1 9 26.9
RLsource 3 7 28.6
Rslc1 5 51 RSLCMOD 1e-6
Rslc2 5 50 1e3
Rsource 8 7 RSOURCEMOD 13.85e-3
Rvthres 22 8 RVTHRESMOD 1
Rvtemp 18 19 RVTEMPMOD 1
AS1a 6 12 13 8 S1AMOD
AS1b 13 12 13 8 S1BMOD
AS2a 6 15 14 13 S2AMOD
AS2b 13 15 14 13 S2BMOD
Vbat 22 19 DC 1
.MODEL DBODYMOD D (IS=7.50e-13 RS=5.05e-3 
+ CJO=1.51e-9 TT=4.05e-8 M=0.50) ; TRS1=2.21e-3 TRS2=1.02e-6
.MODEL DBREAKMOD D (RS=2.14e-1) ; TRS1=9.62e-4 TRS2=1.23E-6
.MODEL DPLCAPMOD D (CJO=13.50e-10 IS=1e-30 N=10 M=0.85)
.MODEL MMEDMOD NMOS (VTO=3.250 KP=2.50 IS=1e-30 TOX=1) ; RG=1.52
.MODEL MSTROMOD NMOS (VTO=3.80 KP=70.00 IS=1e-30 TOX=1)
.MODEL MWEAKMOD NMOS (VTO=2.910 KP=0.060 IS=1e-30 TOX=1 RS=0.1) ; RG=15.2 
.MODEL RBREAKMOD R (TC1=1.05e-3 TC2=1.94e-7)
.MODEL RDRAINMOD R (TC1=8.04e-2 TC2=1.37e-4)
.MODEL RSLCMOD R (TC1=4.83e-3 TC2=1.16e-6)
.MODEL RSOURCEMOD R (TC1=0 TC2=0)
.MODEL RVTHRESMOD R (TC1=-3.43e-3 TC2=-1.63e-5)
.MODEL RVTEMPMOD R (TC1=-1.35e-3 TC2=1.16e-6)
.MODEL S1AMOD VSWITCH(RON=1e-5 ROFF=0.1 VON=-7.90 VOFF=-4.90)
.MODEL S1BMOD VSWITCH(RON=1e-5 ROFF=0.1 VON=-4.90 VOFF=-7.90)
.MODEL S2AMOD VSWITCH(RON=1e-5 ROFF=0.1 VON=-0.50 VOFF=2.50)
.MODEL S2BMOD VSWITCH(RON=1e-5 ROFF=0.1 VON=2.50 VOFF=-0.50)
.ENDS
**********
*SRC=HUF75329P3h;HUF75329P3h;MOSFETs N;Harris;UltraFet
*SYM=POWMOSN
.SUBCKT HUF75329P3h 2 1 3 ; REV 6/18/97
* Term. Conn.*      D G S
* IsSpice4 Model circuit file for the following part: HUF75329P3
Ca 12 8 1.72e-9
Cb 15 14 1.52e-9
Cin 6 8 9.61e-10
Dbody 7 5 DBODYMOD
Dbreak 5 11 DBREAKMOD
Dplcap 10 5 DPLCAPMOD
Ebreak 11 7 17 18 58.13
Eds 14 8 5 8 1
Egs 13 8 6 8 1
Esg 6 10 6 8 1
BEslc 51 50 V= (V(5,51)/ABS(V(5,51)))*((V(5,51)/(1E-6*135))^3.5)
Evthres 6 21 19 8 1
Evtemp 20 6 18 22 1
It 8 17 1
Ldrain 2 5 1.00e-9
Lgate 1 9 2.86e-9
Lsource 3 7 2.69e-9
Mmed 16 6 8 8 MMEDMOD L=1u W=1u
Mstro 16 6 8 8 MSTROMOD L=1u W=1u
Mweak 16 21 8 8 MWEAKMOD L=1u W=1u
Rbreak 17 18 RBREAKMOD 1
Rdrain 50 16 RDRAINMOD 1.00e-3
Rgate 9 20 1.52
RLdrain 2 5 10.0
RLgate 1 9 26.9
RLsource 3 7 28.6
Rslc1 5 51 RSLCMOD 1e-6
Rslc2 5 50 1e3
Rsource 8 7 RSOURCEMOD 13.85e-3
Rvthres 22 8 RVTHRESMOD 1
Rvtemp 18 19 RVTEMPMOD 1
AS1a 6 12 13 8 S1AMOD
AS1b 13 12 13 8 S1BMOD
AS2a 6 15 14 13 S2AMOD
AS2b 13 15 14 13 S2BMOD
Vbat 22 19 DC 1
.MODEL DBODYMOD D (IS=7.50e-13 RS=5.05e-3 
+ CJO=1.51e-9 TT=4.05e-8 M=0.50) ; TRS1=2.21e-3 TRS2=1.02e-6
.MODEL DBREAKMOD D (RS=2.14e-1) ; TRS1=9.62e-4 TRS2=1.23E-6
.MODEL DPLCAPMOD D (CJO=13.50e-10 IS=1e-30 N=10 M=0.85)
.MODEL MMEDMOD NMOS (VTO=3.250 KP=2.50 IS=1e-30 TOX=1) ; RG=1.52
.MODEL MSTROMOD NMOS (VTO=3.80 KP=70.00 IS=1e-30 TOX=1)
.MODEL MWEAKMOD NMOS (VTO=2.910 KP=0.060 IS=1e-30 TOX=1 RS=0.1) ; RG=15.2 
.MODEL RBREAKMOD R (TC1=1.05e-3 TC2=1.94e-7)
.MODEL RDRAINMOD R (TC1=8.04e-2 TC2=1.37e-4)
.MODEL RSLCMOD R (TC1=4.83e-3 TC2=1.16e-6)
.MODEL RSOURCEMOD R (TC1=0 TC2=0)
.MODEL RVTHRESMOD R (TC1=-3.43e-3 TC2=-1.63e-5)
.MODEL RVTEMPMOD R (TC1=-1.35e-3 TC2=1.16e-6)
.MODEL S1AMOD VSWITCH(RON=1e-5 ROFF=0.1 VON=-7.90 VOFF=-4.90)
.MODEL S1BMOD VSWITCH(RON=1e-5 ROFF=0.1 VON=-4.90 VOFF=-7.90)
.MODEL S2AMOD VSWITCH(RON=1e-5 ROFF=0.1 VON=-0.50 VOFF=2.50)
.MODEL S2BMOD VSWITCH(RON=1e-5 ROFF=0.1 VON=2.50 VOFF=-0.50)
.ENDS
**********
*SRC=HUF75329S3h;HUF75329S3h;MOSFETs N;Harris;UltraFet
*SYM=POWMOSN
.SUBCKT HUF75329S3h 2 1 3 ; REV 6/18/97
* Term. Conn.*      D G S
* IsSpice4 Model circuit file for the following part: HUF75329S3, HUF75329S3S
Ca 12 8 1.72e-9
Cb 15 14 1.52e-9
Cin 6 8 9.61e-10
Dbody 7 5 DBODYMOD
Dbreak 5 11 DBREAKMOD
Dplcap 10 5 DPLCAPMOD
Ebreak 11 7 17 18 58.13
Eds 14 8 5 8 1
Egs 13 8 6 8 1
Esg 6 10 6 8 1
BEslc 51 50 V= (V(5,51)/ABS(V(5,51)))*((V(5,51)/(1E-6*135))^3.5)
Evthres 6 21 19 8 1
Evtemp 20 6 18 22 1
It 8 17 1
Ldrain 2 5 1.00e-9
Lgate 1 9 2.86e-9
Lsource 3 7 2.69e-9
Mmed 16 6 8 8 MMEDMOD L=1u W=1u
Mstro 16 6 8 8 MSTROMOD L=1u W=1u
Mweak 16 21 8 8 MWEAKMOD L=1u W=1u
Rbreak 17 18 RBREAKMOD 1
Rdrain 50 16 RDRAINMOD 1.00e-3
Rgate 9 20 1.52
RLdrain 2 5 10.0
RLgate 1 9 26.9
RLsource 3 7 28.6
Rslc1 5 51 RSLCMOD 1e-6
Rslc2 5 50 1e3
Rsource 8 7 RSOURCEMOD 13.85e-3
Rvthres 22 8 RVTHRESMOD 1
Rvtemp 18 19 RVTEMPMOD 1
AS1a 6 12 13 8 S1AMOD
AS1b 13 12 13 8 S1BMOD
AS2a 6 15 14 13 S2AMOD
AS2b 13 15 14 13 S2BMOD
Vbat 22 19 DC 1
.MODEL DBODYMOD D (IS=7.50e-13 RS=5.05e-3 
+ CJO=1.51e-9 TT=4.05e-8 M=0.50) ; TRS1=2.21e-3 TRS2=1.02e-6
.MODEL DBREAKMOD D (RS=2.14e-1) ; TRS1=9.62e-4 TRS2=1.23E-6
.MODEL DPLCAPMOD D (CJO=13.50e-10 IS=1e-30 N=10 M=0.85)
.MODEL MMEDMOD NMOS (VTO=3.250 KP=2.50 IS=1e-30 TOX=1) ; RG=1.52
.MODEL MSTROMOD NMOS (VTO=3.80 KP=70.00 IS=1e-30 TOX=1)
.MODEL MWEAKMOD NMOS (VTO=2.910 KP=0.060 IS=1e-30 TOX=1 RS=0.1) ; RG=15.2 
.MODEL RBREAKMOD R (TC1=1.05e-3 TC2=1.94e-7)
.MODEL RDRAINMOD R (TC1=8.04e-2 TC2=1.37e-4)
.MODEL RSLCMOD R (TC1=4.83e-3 TC2=1.16e-6)
.MODEL RSOURCEMOD R (TC1=0 TC2=0)
.MODEL RVTHRESMOD R (TC1=-3.43e-3 TC2=-1.63e-5)
.MODEL RVTEMPMOD R (TC1=-1.35e-3 TC2=1.16e-6)
.MODEL S1AMOD VSWITCH(RON=1e-5 ROFF=0.1 VON=-7.90 VOFF=-4.90)
.MODEL S1BMOD VSWITCH(RON=1e-5 ROFF=0.1 VON=-4.90 VOFF=-7.90)
.MODEL S2AMOD VSWITCH(RON=1e-5 ROFF=0.1 VON=-0.50 VOFF=2.50)
.MODEL S2BMOD VSWITCH(RON=1e-5 ROFF=0.1 VON=2.50 VOFF=-0.50)
.ENDS
**********
*SRC=HUF75333G3h;HUF75333G3h;MOSFETs N;Harris;UltraFet
*SYM=POWMOSN
.SUBCKT HUF75333G3h 2 1 3 ; REV 6/30/97
* Term. Conn.*      D G S
* IsSpice4 Model circuit file for the following part: HUF75333G3
Ca 12 8 1.80e-9
Cb 15 14 1.73e-9
Cin 6 8 1.19e-9
Dbody 7 5 DBODYMOD
Dbreak 5 11 DBREAKMOD
Dplcap 10 5 DPLCAPMOD
Ebreak 11 7 17 18 58.85
Eds 14 8 5 8 1
Egs 13 8 6 8 1
Esg 6 10 6 8 1
BEslc 51 50 V= (V(5,51)/ABS(V(5,51)))*((V(5,51)/(1E-6*609))^2.5)
Evthres 6 21 19 8 1
Evtemp 20 6 18 22 1
It 8 17 1
Ldrain 2 5 1e-9
Lgate 1 9 1.00e-9
Lsource 3 7 1.00e-9
K1 Lsource Lgate 0.0085
Mmed 16 6 8 8 MMEDMOD L=1u W=1u
Mstro 16 6 8 8 MSTROMOD L=1u W=1u
Mweak 16 21 8 8 MWEAKMOD L=1u W=1u
Rbreak 17 18 RBREAKMOD 1
Rdrain 50 16 RDRAINMOD 4.50e-3
Rgate 9 20 1.00
RLdrain 2 5 10.0
RLgate 1 9 10.0
RLsource 3 7 10.0
Rslc1 5 51 RSLCMOD 1e-6
Rslc2 5 50 1e3
Rsource 8 7 RSOURCEMOD 5.95e-3
Rvthres 22 8 RVTHRESMOD 1
Rvtemp 18 19 RVTEMPMOD 1
AS1a 6 12 13 8 S1AMOD
AS1b 13 12 13 8 S1BMOD
AS2a 6 15 14 13 S2AMOD
AS2b 13 15 14 13 S2BMOD
Vbat 22 19 DC 1
.MODEL DBODYMOD D (IS=1.30e-12 RS=3.00e-3 
+ CJO=1.70e-9 TT=40.0e-8 M=0 XTI=6.0) ; IKF=20 TRS1=2.70e-3 TRS2=7.00e-6
.MODEL DBREAKMOD D (RS=0.1e-1) ; TRS1=-4.0e-4 TRS2=1.55e-5 IKF=1.00e-5
.MODEL DPLCAPMOD D (CJO=1.80e-9 IS=1e-30 N=1 M=0.9 VJ=1.45)
.MODEL MMEDMOD NMOS (VTO=3.183 KP=2.00 IS=1e-30 TOX=1) ; RG=1
.MODEL MSTROMOD NMOS (VTO=3.660 KP=51.5 IS=1e-30 TOX=1)
.MODEL MWEAKMOD NMOS (VTO=2.703 KP=0.008 IS=1e-30 TOX=1) ; RG=10
.MODEL RBREAKMOD R (TC1=1.05-3 TC2=4.5e-7)
.MODEL RDRAINMOD R (TC1=1.16e-2 TC2=1.70e-5)
.MODEL RSLCMOD R (TC1=3.96e-3 TC2=2.70e-6)
.MODEL RSOURCEMOD R (TC1=1.00e-3 TC2=1.00e-5)
.MODEL RVTHRESMOD R (TC1=-2.8e-3 TC2=-1.00e-6)
.MODEL RVTEMPMOD R (TC1=-2.75e-3 TC2=0.50e-6)
.MODEL S1AMOD VSWITCH(RON=1e-5 ROFF=0.1 VON=-8.00 VOFF=-3.00)
.MODEL S1BMOD VSWITCH(RON=1e-5 ROFF=0.1 VON=-3.00 VOFF=-8.00)
.MODEL S2AMOD VSWITCH(RON=1e-5 ROFF=0.1 VON=0.00 VOFF=0.50)
.MODEL S2BMOD VSWITCH(RON=1e-5 ROFF=0.1 VON=0.50 VOFF=0.00)
.ENDS
**********
*SRC=HUF75333P3h;HUF75333P3h;MOSFETs N;Harris;UltraFet
*SYM=POWMOSN
.SUBCKT HUF75333P3h 2 1 3 ; REV 6/30/97
* Term. Conn.*      D G S
* IsSpice4 Model circuit file for the following part: HUF75333P3
Ca 12 8 1.80e-9
Cb 15 14 1.73e-9
Cin 6 8 1.19e-9
Dbody 7 5 DBODYMOD
Dbreak 5 11 DBREAKMOD
Dplcap 10 5 DPLCAPMOD
Ebreak 11 7 17 18 58.85
Eds 14 8 5 8 1
Egs 13 8 6 8 1
Esg 6 10 6 8 1
BEslc 51 50 V= (V(5,51)/ABS(V(5,51)))*((V(5,51)/(1E-6*609))^2.5)
Evthres 6 21 19 8 1
Evtemp 20 6 18 22 1
It 8 17 1
Ldrain 2 5 1e-9
Lgate 1 9 1.00e-9
Lsource 3 7 1.00e-9
K1 Lsource Lgate 0.0085
Mmed 16 6 8 8 MMEDMOD L=1u W=1u
Mstro 16 6 8 8 MSTROMOD L=1u W=1u
Mweak 16 21 8 8 MWEAKMOD L=1u W=1u
Rbreak 17 18 RBREAKMOD 1
Rdrain 50 16 RDRAINMOD 4.50e-3
Rgate 9 20 1.00
RLdrain 2 5 10.0
RLgate 1 9 10.0
RLsource 3 7 10.0
Rslc1 5 51 RSLCMOD 1e-6
Rslc2 5 50 1e3
Rsource 8 7 RSOURCEMOD 5.95e-3
Rvthres 22 8 RVTHRESMOD 1
Rvtemp 18 19 RVTEMPMOD 1
AS1a 6 12 13 8 S1AMOD
AS1b 13 12 13 8 S1BMOD
AS2a 6 15 14 13 S2AMOD
AS2b 13 15 14 13 S2BMOD
Vbat 22 19 DC 1
.MODEL DBODYMOD D (IS=1.30e-12 RS=3.00e-3 
+ CJO=1.70e-9 TT=40.0e-8 M=0 XTI=6.0) ; IKF=20 TRS1=2.70e-3 TRS2=7.00e-6
.MODEL DBREAKMOD D (RS=0.1e-1) ; TRS1=-4.0e-4 TRS2=1.55e-5 IKF=1.00e-5
.MODEL DPLCAPMOD D (CJO=1.80e-9 IS=1e-30 N=1 M=0.9 VJ=1.45)
.MODEL MMEDMOD NMOS (VTO=3.183 KP=2.00 IS=1e-30 TOX=1) ; RG=1
.MODEL MSTROMOD NMOS (VTO=3.660 KP=51.5 IS=1e-30 TOX=1)
.MODEL MWEAKMOD NMOS (VTO=2.703 KP=0.008 IS=1e-30 TOX=1) ; RG=10
.MODEL RBREAKMOD R (TC1=1.05-3 TC2=4.5e-7)
.MODEL RDRAINMOD R (TC1=1.16e-2 TC2=1.70e-5)
.MODEL RSLCMOD R (TC1=3.96e-3 TC2=2.70e-6)
.MODEL RSOURCEMOD R (TC1=1.00e-3 TC2=1.00e-5)
.MODEL RVTHRESMOD R (TC1=-2.8e-3 TC2=-1.00e-6)
.MODEL RVTEMPMOD R (TC1=-2.75e-3 TC2=0.50e-6)
.MODEL S1AMOD VSWITCH(RON=1e-5 ROFF=0.1 VON=-8.00 VOFF=-3.00)
.MODEL S1BMOD VSWITCH(RON=1e-5 ROFF=0.1 VON=-3.00 VOFF=-8.00)
.MODEL S2AMOD VSWITCH(RON=1e-5 ROFF=0.1 VON=0.00 VOFF=0.50)
.MODEL S2BMOD VSWITCH(RON=1e-5 ROFF=0.1 VON=0.50 VOFF=0.00)
.ENDS
**********
*SRC=HUF75333S3h;HUF75333S3h;MOSFETs N;Harris;UltraFet
*SYM=POWMOSN
.SUBCKT HUF75333S3h 2 1 3 ; REV 6/30/97
* Term. Conn.*      D G S
* IsSpice4 Model circuit file for the following part: HUF75333S3, HUF75333S3S
Ca 12 8 1.80e-9
Cb 15 14 1.73e-9
Cin 6 8 1.19e-9
Dbody 7 5 DBODYMOD
Dbreak 5 11 DBREAKMOD
Dplcap 10 5 DPLCAPMOD
Ebreak 11 7 17 18 58.85
Eds 14 8 5 8 1
Egs 13 8 6 8 1
Esg 6 10 6 8 1
BEslc 51 50 V= (V(5,51)/ABS(V(5,51)))*((V(5,51)/(1E-6*609))^2.5)
Evthres 6 21 19 8 1
Evtemp 20 6 18 22 1
It 8 17 1
Ldrain 2 5 1e-9
Lgate 1 9 1.00e-9
Lsource 3 7 1.00e-9
K1 Lsource Lgate 0.0085
Mmed 16 6 8 8 MMEDMOD L=1u W=1u
Mstro 16 6 8 8 MSTROMOD L=1u W=1u
Mweak 16 21 8 8 MWEAKMOD L=1u W=1u
Rbreak 17 18 RBREAKMOD 1
Rdrain 50 16 RDRAINMOD 4.50e-3
Rgate 9 20 1.00
RLdrain 2 5 10.0
RLgate 1 9 10.0
RLsource 3 7 10.0
Rslc1 5 51 RSLCMOD 1e-6
Rslc2 5 50 1e3
Rsource 8 7 RSOURCEMOD 5.95e-3
Rvthres 22 8 RVTHRESMOD 1
Rvtemp 18 19 RVTEMPMOD 1
AS1a 6 12 13 8 S1AMOD
AS1b 13 12 13 8 S1BMOD
AS2a 6 15 14 13 S2AMOD
AS2b 13 15 14 13 S2BMOD
Vbat 22 19 DC 1
.MODEL DBODYMOD D (IS=1.30e-12 RS=3.00e-3 
+ CJO=1.70e-9 TT=40.0e-8 M=0 XTI=6.0) ; IKF=20 TRS1=2.70e-3 TRS2=7.00e-6
.MODEL DBREAKMOD D (RS=0.1e-1) ; TRS1=-4.0e-4 TRS2=1.55e-5 IKF=1.00e-5
.MODEL DPLCAPMOD D (CJO=1.80e-9 IS=1e-30 N=1 M=0.9 VJ=1.45)
.MODEL MMEDMOD NMOS (VTO=3.183 KP=2.00 IS=1e-30 TOX=1) ; RG=1
.MODEL MSTROMOD NMOS (VTO=3.660 KP=51.5 IS=1e-30 TOX=1)
.MODEL MWEAKMOD NMOS (VTO=2.703 KP=0.008 IS=1e-30 TOX=1) ; RG=10
.MODEL RBREAKMOD R (TC1=1.05-3 TC2=4.5e-7)
.MODEL RDRAINMOD R (TC1=1.16e-2 TC2=1.70e-5)
.MODEL RSLCMOD R (TC1=3.96e-3 TC2=2.70e-6)
.MODEL RSOURCEMOD R (TC1=1.00e-3 TC2=1.00e-5)
.MODEL RVTHRESMOD R (TC1=-2.8e-3 TC2=-1.00e-6)
.MODEL RVTEMPMOD R (TC1=-2.75e-3 TC2=0.50e-6)
.MODEL S1AMOD VSWITCH(RON=1e-5 ROFF=0.1 VON=-8.00 VOFF=-3.00)
.MODEL S1BMOD VSWITCH(RON=1e-5 ROFF=0.1 VON=-3.00 VOFF=-8.00)
.MODEL S2AMOD VSWITCH(RON=1e-5 ROFF=0.1 VON=0.00 VOFF=0.50)
.MODEL S2BMOD VSWITCH(RON=1e-5 ROFF=0.1 VON=0.50 VOFF=0.00)
.ENDS
**********
*SRC=HUF75339G3h;HUF75339G3h;MOSFETs N;Harris;UltraFet
*SYM=POWMOSN
.SUBCKT HUF75339G3h 2 1 3 ; REV 5/30/97
* Term. Conn.*      D G S
* IsSpice4 Model circuit file for the following part: HUF75339G3
Ca 12 8 2.80e-9
Cb 15 14 2.70e-9
Cin 6 8 1.77e-9
Dbody 7 5 DBODYMOD
Dbreak 5 11 DBREAKMOD
Dplcap 10 5 DPLCAPMOD
Ebreak 11 7 17 18 59.20
Eds 14 8 5 8 1
Egs 13 8 6 8 1
Esg 6 10 6 8 1
BEslc 51 50 V= (V(5,51)/ABS(V(5,51)))*((V(5,51)/(1E-6*230))^4.0)
Evthres 6 21 19 8 1
Evtemp 20 6 18 22 1
It 8 17 1
Ldrain 2 5 1e-9
Lgate 1 9 2.60e-9
Lsource 3 7 1.10e-9
K1 Lsource Lgate 0.0085
Mmed 16 6 8 8 MMEDMOD L=1u W=1u
Mstro 16 6 8 8 MSTROMOD L=1u W=1u
Mweak 16 21 8 8 MWEAKMOD L=1u W=1u
Rbreak 17 18 RBREAKMOD 1
Rdrain 50 16 RDRAINMOD 1.95e-3
Rgate 9 20 0.34
RLdrain 2 5 10
RLgate 1 9 26.0
RLsource 3 7 11.0
Rslc1 5 51 RSLCMOD 1e-6
Rslc2 5 50 1e3
Rsource 8 7 RSOURCEMOD 6.00e-3
Rvthres 22 8 RVTHRESMOD 1
Rvtemp 18 19 RVTEMPMOD 1
AS1a 6 12 13 8 S1AMOD
AS1b 13 12 13 8 S1BMOD
AS2a 6 15 14 13 S2AMOD
AS2b 13 15 14 13 S2BMOD
Vbat 22 19 DC 1
.MODEL DBODYMOD D (IS=3.50e-12 RS=3.02e-3 
+ CJO=2.90e-9 TT=4.35e-8 M=0.50 N=1.02 XTI=5.5) ; TRS1=3.00e-3 TRS2=4.00e-6
.MODEL DBREAKMOD D (RS=8.5e-2) ; TRS1=8.00e-4 TRS2=1.00e-7
.MODEL DPLCAPMOD D (CJO=40.00e-10 IS=1e-30 N=10 M=1.05)
.MODEL MMEDMOD NMOS (VTO=3.100 KP=1.50 IS=1e-30 TOX=1)
.MODEL MSTROMOD NMOS (VTO=3.730 KP=86.5 IS=1e-30 TOX=1)
.MODEL MWEAKMOD NMOS (VTO=2.700 KP=0.010 IS=1e-30 TOX=1)
.MODEL RBREAKMOD R (TC1=1.08e-3 TC2=-2.50e-7)
.MODEL RDRAINMOD R (TC1=2.05e-2 TC2=1.60e-5)
.MODEL RSLCMOD R (TC1=6.00e-3 TC2=-2.80e-6)
.MODEL RSOURCEMOD R (TC1=5.50e-4 TC2=1.75e-5)
.MODEL RVTHRESMOD R (TC1=-3.65e-3 TC2=-6.00e-6)
.MODEL RVTEMPMOD R (TC1=-2.30e-3 TC2=-4.00e-6)
.MODEL S1AMOD VSWITCH(RON=1e-5 ROFF=0.1 VON=-9.00 VOFF=-5.50)
.MODEL S1BMOD VSWITCH(RON=1e-5 ROFF=0.1 VON=-5.50 VOFF=-9.00)
.MODEL S2AMOD VSWITCH(RON=1e-5 ROFF=0.1 VON=0.00 VOFF=2.10)
.MODEL S2BMOD VSWITCH(RON=1e-5 ROFF=0.1 VON=2.10 VOFF=0.00)
.ENDS
**********
*SRC=HUF75339P3h;HUF75339P3h;MOSFETs N;Harris;UltraFet
*SYM=POWMOSN
.SUBCKT HUF75339P3h 2 1 3 ; REV 5/30/97
* Term. Conn.*      D G S
* IsSpice4 Model circuit file for the following part: HUF75339P3
Ca 12 8 2.80e-9
Cb 15 14 2.70e-9
Cin 6 8 1.77e-9
Dbody 7 5 DBODYMOD
Dbreak 5 11 DBREAKMOD
Dplcap 10 5 DPLCAPMOD
Ebreak 11 7 17 18 59.20
Eds 14 8 5 8 1
Egs 13 8 6 8 1
Esg 6 10 6 8 1
BEslc 51 50 V= (V(5,51)/ABS(V(5,51)))*((V(5,51)/(1E-6*230))^4.0)
Evthres 6 21 19 8 1
Evtemp 20 6 18 22 1
It 8 17 1
Ldrain 2 5 1e-9
Lgate 1 9 2.60e-9
Lsource 3 7 1.10e-9
K1 Lsource Lgate 0.0085
Mmed 16 6 8 8 MMEDMOD L=1u W=1u
Mstro 16 6 8 8 MSTROMOD L=1u W=1u
Mweak 16 21 8 8 MWEAKMOD L=1u W=1u
Rbreak 17 18 RBREAKMOD 1
Rdrain 50 16 RDRAINMOD 1.95e-3
Rgate 9 20 0.34
RLdrain 2 5 10
RLgate 1 9 26.0
RLsource 3 7 11.0
Rslc1 5 51 RSLCMOD 1e-6
Rslc2 5 50 1e3
Rsource 8 7 RSOURCEMOD 6.00e-3
Rvthres 22 8 RVTHRESMOD 1
Rvtemp 18 19 RVTEMPMOD 1
AS1a 6 12 13 8 S1AMOD
AS1b 13 12 13 8 S1BMOD
AS2a 6 15 14 13 S2AMOD
AS2b 13 15 14 13 S2BMOD
Vbat 22 19 DC 1
.MODEL DBODYMOD D (IS=3.50e-12 RS=3.02e-3 
+ CJO=2.90e-9 TT=4.35e-8 M=0.50 N=1.02 XTI=5.5) ; TRS1=3.00e-3 TRS2=4.00e-6
.MODEL DBREAKMOD D (RS=8.5e-2) ; TRS1=8.00e-4 TRS2=1.00e-7
.MODEL DPLCAPMOD D (CJO=40.00e-10 IS=1e-30 N=10 M=1.05)
.MODEL MMEDMOD NMOS (VTO=3.100 KP=1.50 IS=1e-30 TOX=1)
.MODEL MSTROMOD NMOS (VTO=3.730 KP=86.5 IS=1e-30 TOX=1)
.MODEL MWEAKMOD NMOS (VTO=2.700 KP=0.010 IS=1e-30 TOX=1)
.MODEL RBREAKMOD R (TC1=1.08e-3 TC2=-2.50e-7)
.MODEL RDRAINMOD R (TC1=2.05e-2 TC2=1.60e-5)