**********
.MODEL DMOD D IS=1E-25 CJO=2.45E-16 VJ=.76 M=.53 BV=45 IBV=1N
**********
.MODEL QDIS NPN BF=100 BR=5 IS=1.65E-18 VAF=20 TF=12P CJE=1.8F
+ VJE=1.01 MJE=.6 PTF=35 XTB=1.818 VTF=6 ITF=.3M IK=.1M XTF=4
+ NF=1.03 ISE=5F NE=2.5
**********
.MODEL QPWR NPN BF=75 BR=5 IS=1.65E-18 VAF=30 TF=14P CJE=1.8F
+ VJE=1.01 MJE=.6 PTF=50 XTB=1.818 VTF=6 ITF=.3M IK=.1M XTF=4
+ NF=1.03 ISE=5F NE=2.5
**********
.MODEL QMSA NPN BF=90 BR=5 IS=1.65E-18 VAF=20 TF=12P CJE=1.8F
+ VJE=1.01 MJE=.6 PTF=25 XTB=1.818 VTF=6 ITF=.3M IK=.1333M XTF=4
+ NF=1.03 ISE=5F NE=2.5
**********
*SRC=HP00500;HP00500;BJTs NPN;RF;Gen. Purp.
*SYM=RFNBJT
.SUBCKT HP00500 6 10 9
LB 10 3 .5NH
LE 5 9 .2NH
RB1 3 14 4.9 RMOD1
RB2 14 15 8.9 RMOD2
RB3 15 12 4.9 RMOD3
RC 19 6 5 RMODC
RE 13 5 .39 RMODE
.MODEL RMOD1 R TC1=.8M
.MODEL RMOD2 R TC1=1.2M
.MODEL RMOD3 R TC1=1.8M
.MODEL RMODC R TC1=.6M
.MODEL RMODE R TC1=.6M
CB 19 3 .157P
D1 3 19 DMOD 546
D2 14 19 DMOD 1586
D3 15 19 DMOD 189
CE 19 5 .157P
Q1 19 12 13 QDIS 228
.ENDS
*INCLUDE HPRF.LIB
**********
*SRC=HP00510;HP00510;BJTs NPN;RF;Gen. Purp.
*SYM=RFNBJT
.SUBCKT HP00510 6 10 9
LT1 1 2 403.59P
CT1 1 0 199.30F
LT2 17 7 78.476P
CT2 7 0 64.062F
LT3 4 8 454.04P
CT3 8 0 224.22F
CBC 2 4 .05P
CEB 2 17 .03P
CEC 17 4 .03P
LB 2 3 .65NH
LE 16 17 .1NH
L1 10 1 .05NH
L2 7 9 .01NH
L3 8 6 .05NH
RB1 3 14 4.9 RMOD1
RB2 14 15 8.9 RMOD2
RB3 15 12 4.9 RMOD3
RC 19 4 5 RMODC
RE 13 16 .39 RMODE
.MODEL RMOD1 R TC1=.8M
.MODEL RMOD2 R TC1=1.2M
.MODEL RMOD3 R TC1=1.8M
.MODEL RMODC R TC1=.6M
.MODEL RMODE R TC1=.6M
CB 19 3 .157P
D1 3 19 DMOD 546
D2 14 19 DMOD 1586
D3 15 19 DMOD 189
CE 19 16 .157P
Q1 19 12 13 QDIS 228
.ENDS
*INCLUDE HPRF.LIB
**********
*SRC=HP00511;HP00511;BJTs NPN;RF;Gen. Purp.
*SYM=RFNBJT
.SUBCKT HP00511 6 10 9
LT1 1 2 426.37P
CT1 1 0 210.55F
LT2 17 7 113.70P
CT2 7 0 126.33F
LT3 4 8 511.64P
CT3 8 0 252.66F
CEB 2 17 .04P
CEC 17 4 .01P
CBC 2 4 .04P
LB 2 3 .5NH
LE 16 17 .25NH
L1 10 1 .05NH
L2 7 9 .01NH
L3 8 6 .05NH
RB1 3 14 4.9 RMOD1
RB2 14 15 8.9 RMOD2
RB3 15 12 4.9 RMOD3
RC 19 4 5 RMODC
RE 13 16 .39 RMODE
.MODEL RMOD1 R TC1=.8M
.MODEL RMOD2 R TC1=1.2M
.MODEL RMOD3 R TC1=1.8M
.MODEL RMODC R TC1=.6M
.MODEL RMODE R TC1=.6M
CB 19 3 .157P
D1 3 19 DMOD 546
D2 14 19 DMOD 1586
D3 15 19 DMOD 189
CE 19 16 .157P
Q1 19 12 13 QDIS 228
.ENDS
*INCLUDE HPRF.LIB
**********
*SRC=HP00535;HP00535;BJTs NPN;RF;Gen. Purp.
*SYM=RFNBJT
.SUBCKT HP00535 6 10 9
LT1 1 2 510.09P
CT1 1 0 120.73F
LT2 17 7 100.90P
CT2 7 0 112.11F
LT3 4 8 728.70P
CT3 8 0 172.47F
CEB 2 17 .01P
CEC 17 4 .03P
CBC 2 4 .02P
LB 2 3 .6NH
LE 16 17 .3NH
L1 10 1 .05NH
L2 7 9 .01NH
L3 8 6 .05NH
RB1 3 14 4.9 RMOD1
RB2 14 15 8.9 RMOD2
RB3 15 12 4.9 RMOD3
RC 19 4 5 RMODC
RE 13 16 .39 RMODE
.MODEL RMOD1 R TC1=.8M
.MODEL RMOD2 R TC1=1.2M
.MODEL RMOD3 R TC1=1.8M
.MODEL RMODC R TC1=.6M
.MODEL RMODE R TC1=.6M
CB 19 3 .157P
D1 3 19 DMOD 546
D2 14 19 DMOD 1586
D3 15 19 DMOD 189
CE 19 16 .157P
Q1 19 12 13 QDIS 228
.ENDS
*INCLUDE HPRF.LIB
**********
*SRC=HP00570;HP00570;BJTs NPN;RF;Gen. Purp.
*SYM=RFNBJT
.SUBCKT HP00570 6 10 9
LT1 1 2 224.22P
CT1 1 0 140.14F
LT2 17 7 22.422P
CT2 7 0 56.054F
LT3 4 8 313.90P
CT3 8 0 196.19F
CEB 2 17 .02P
CEC 17 4 .01P
CBC 2 4 .02P
LB 2 3 .5NH
LE 16 17 .14NH
L1 10 1 .05NH
L2 7 9 .01NH
L3 8 6 .05NH
RB1 3 14 4.9 RMOD1
RB2 14 15 8.9 RMOD2
RB3 15 12 4.9 RMOD3
RC 19 4 5 RMODC
RE 13 16 .39 RMODE
.MODEL RMOD1 R TC1=.8M
.MODEL RMOD2 R TC1=1.2M
.MODEL RMOD3 R TC1=1.8M
.MODEL RMODC R TC1=.6M
.MODEL RMODE R TC1=.6M
CB 19 3 .157P
D1 3 19 DMOD 546
D2 14 19 DMOD 1586
D3 15 19 DMOD 189
CE 19 16 .157P
Q1 19 12 13 QDIS 228
.ENDS
*INCLUDE HPRF.LIB
**********
*SRC=HP01600;HP01600;BJTs NPN;RF;Gen. Purp.
*SYM=RFNBJT
.SUBCKT HP01600 6 10 9
LB 10 3 .5NH
LE 5 9 .2NH
RB1 3 14 1.6 RMOD1
RB2 14 15 2.8 RMOD2
RB3 15 12 1.5 RMOD3
RC 19 6 5 RMODC
RE 13 5 .14 RMODE
.MODEL RMOD1 R TC1=.8M
.MODEL RMOD2 R TC1=1.2M
.MODEL RMOD3 R TC1=1.8M
.MODEL RMODC R TC1=.6M
.MODEL RMODE R TC1=.6M
CB 19 3 .176P
D1 3 19 DMOD 1262
D2 14 19 DMOD 5074
D3 15 19 DMOD 605
CE 19 5 .176P
Q1 19 12 13 QDIS 730
.ENDS
*INCLUDE HPRF.LIB
**********
*SRC=HP01610;HP01610;BJTs NPN;RF;Gen. Purp.
*SYM=RFNBJT
.SUBCKT HP01610 6 10 9
LT1 1 2 403.59P
CT1 1 0 199.30F
LT2 17 7 78.476P
CT2 7 0 64.062F
LT3 4 8 454.04P
CT3 8 0 224.22F
CBC 2 4 .05P
CEB 2 17 .03P
CEC 17 4 .03P
LB 2 3 .65NH
LE 16 17 .1NH
L1 10 1 .05NH
L2 7 9 .01NH
L3 8 6 .05NH
RB1 3 14 1.6 RMOD1
RB2 14 15 2.8 RMOD2
RB3 15 12 1.5 RMOD3
RC 19 4 5 RMODC
RE 13 16 .14 RMODE
.MODEL RMOD1 R TC1=.8M
.MODEL RMOD2 R TC1=1.2M
.MODEL RMOD3 R TC1=1.8M
.MODEL RMODC R TC1=.6M
.MODEL RMODE R TC1=.6M
CB 19 3 .176P
D1 3 19 DMOD 1262
D2 14 19 DMOD 5074
D3 15 19 DMOD 605
CE 19 16 .176P
Q1 19 12 13 QDIS 730
.ENDS
*INCLUDE HPRF.LIB
**********
*SRC=HP01635;HP01635;BJTs NPN;RF;Gen. Purp.
*SYM=RFNBJT
.SUBCKT HP01635 6 10 9
LT1 1 2 510.09P
CT1 1 0 120.73F
LT2 17 7 100.90P
CT2 7 0 112.11F
LT3 4 8 728.70P
CT3 8 0 172.47F
CEB 2 17 .01P
CEC 17 4 .03P
CBC 2 4 .02P
LB 2 3 .6NH
LE 16 17 .3NH
L1 10 1 .05NH
L2 7 9 .01NH
L3 8 6 .05NH
RB1 3 14 1.6 RMOD1
RB2 14 15 2.8 RMOD2
RB3 15 12 1.5 RMOD3
RC 19 4 5 RMODC
RE 13 16 .14 RMODE
.MODEL RMOD1 R TC1=.8M
.MODEL RMOD2 R TC1=1.2M
.MODEL RMOD3 R TC1=1.8M
.MODEL RMODC R TC1=.6M
.MODEL RMODE R TC1=.6M
CB 19 3 .176P
D1 3 19 DMOD 1262
D2 14 19 DMOD 5074
D3 15 19 DMOD 605
CE 19 16 .176P
Q1 19 12 13 QDIS 730
.ENDS
*INCLUDE HPRF.LIB
**********
*SRC=HP01670;HP01670;BJTs NPN;RF;Gen. Purp.
*SYM=RFNBJT
.SUBCKT HP01670 6 10 9
LT1 1 2 224.22P
CT1 1 0 140.14F
LT2 17 7 22.422P
CT2 7 0 56.054F
LT3 4 8 313.90P
CT3 8 0 196.19F
CEB 2 17 .02P
CEC 17 4 .01P
CBC 2 4 .02P
LB 2 3 .5NH
LE 16 17 .14NH
L1 10 1 .05NH
L2 7 9 .01NH
L3 8 6 .05NH
RB1 3 14 1.6 RMOD1
RB2 14 15 2.8 RMOD2
RB3 15 12 1.5 RMOD3
RC 19 4 5 RMODC
RE 13 16 .14 RMODE
.MODEL RMOD1 R TC1=.8M
.MODEL RMOD2 R TC1=1.2M
.MODEL RMOD3 R TC1=1.8M
.MODEL RMODC R TC1=.6M
.MODEL RMODE R TC1=.6M
CB 19 3 .176P
D1 3 19 DMOD 1262
D2 14 19 DMOD 5074
D3 15 19 DMOD 605
CE 19 16 .176P
Q1 19 12 13 QDIS 730
.ENDS
*INCLUDE HPRF.LIB
**********
*SRC=HP21400;HP21400;BJTs NPN;RF;Oscillator
*SYM=RFNBJT
.SUBCKT HP21400 6 10 9
LB 10 3 .5NH
LE 5 9 .2NH
RB1 3 14 .6 RMOD1
RB2 14 15 2.2 RMOD2
RB3 15 12 1.9 RMOD3
RC 19 6 5 RMODC
RE 13 5 .45 RMODE
.MODEL RMOD1 R TC1=.8M
.MODEL RMOD2 R TC1=1.2M
.MODEL RMOD3 R TC1=1.8M
.MODEL RMODC R TC1=.6M
.MODEL RMODE R TC1=.6M
CB 19 3 .01P
D1 3 19 DMOD
D2 14 19 DMOD
D3 15 19 DMOD
CE 19 5 .01P
Q1 19 12 13 QDIS
.ENDS
*INCLUDE HPRF.LIB
**********
*SRC=HP41400;HP41400;BJTs NPN;RF;Low Noise
*SYM=RFNBJT
.SUBCKT HP41400 6 10 9
LB 10 3 .5NH
LE 5 9 .2NH
RB1 3 14 1 RMOD1
RB2 14 15 3.1 RMOD2
RB3 15 12 2.7 RMOD3
RC 19 6 5 RMODC
RE 13 5 .24 RMODE
.MODEL RMOD1 R TC1=.8M
.MODEL RMOD2 R TC1=1.2M
.MODEL RMOD3 R TC1=1.8M
.MODEL RMODC R TC1=.6M
.MODEL RMODE R TC1=.6M
CB 19 3 .032P
D1 3 19 DMOD 782
D2 14 19 DMOD 629
D3 15 19 DMOD 365
CE 19 5 .032P
Q1 19 12 13 QDIS 420
.ENDS
*INCLUDE HPRF.LIB
**********
*SRC=HP41410;HP41410;BJTs NPN;RF;Low Noise
*SYM=RFNBJT
.SUBCKT HP41410 6 10 9
LT1 1 2 403.59P
CT1 1 0 199.30F
LT2 17 7 78.476P
CT2 7 0 64.062F
LT3 4 8 454.04P
CT3 8 0 224.22F
CBC 2 4 .05P
CEB 2 17 .03P
CEC 17 4 .03P
LB 2 3 .65NH
LE 16 17 .1NH
L1 10 1 .05NH
L2 7 9 .01NH
L3 8 6 .05NH
RB1 3 14 1 RMOD1
RB2 14 15 3.1 RMOD2
RB3 15 12 2.7 RMOD3
RC 19 4 5 RMODC
RE 13 16 .24 RMODE
.MODEL RMOD1 R TC1=.8M
.MODEL RMOD2 R TC1=1.2M
.MODEL RMOD3 R TC1=1.8M
.MODEL RMODC R TC1=.6M
.MODEL RMODE R TC1=.6M
CB 19 3 .032P
D1 3 19 DMOD 782
D2 14 19 DMOD 629
D3 15 19 DMOD 365
CE 19 16 .032P
Q1 19 12 13 QDIS 420
.ENDS
*INCLUDE HPRF.LIB
**********
*SRC=HP41411;HP41411;BJTs NPN;RF;Low Noise
*SYM=RFNBJT
.SUBCKT HP41411 6 10 9
LT1 1 2 426.37P
CT1 1 0 210.55F
LT2 17 7 113.70P
CT2 7 0 126.33F
LT3 4 8 511.64P
CT3 8 0 252.66F
CEB 2 17 .04P
CEC 17 4 .01P
CBC 2 4 .04P
LB 2 3 .5NH
LE 16 17 .25NH
L1 10 1 .05NH
L2 7 9 .01NH
L3 8 6 .05NH
RB1 3 14 1 RMOD1
RB2 14 15 3.1 RMOD2
RB3 15 12 2.7 RMOD3
RC 19 4 5 RMODC
RE 13 16 .24 RMODE
.MODEL RMOD1 R TC1=.8M
.MODEL RMOD2 R TC1=1.2M
.MODEL RMOD3 R TC1=1.8M
.MODEL RMODC R TC1=.6M
.MODEL RMODE R TC1=.6M
CB 19 3 .032P
D1 3 19 DMOD 782
D2 14 19 DMOD 629
D3 15 19 DMOD 365
CE 19 16 .032P
Q1 19 12 13 QDIS 420
.ENDS
*INCLUDE HPRF.LIB
**********
*SRC=HP41435;HP41435;BJTs NPN;RF;Low Noise
*SYM=RFNBJT
.SUBCKT HP41435 6 10 9
LT1 1 2 510.09P
CT1 1 0 120.73F
LT2 17 7 100.90P
CT2 7 0 112.11F
LT3 4 8 728.70P
CT3 8 0 172.47F
CEB 2 17 .01P
CEC 17 4 .03P
CBC 2 4 .02P
LB 2 3 .6NH
LE 16 17 .3NH
L1 10 1 .05NH
L2 7 9 .01NH
L3 8 6 .05NH
RB1 3 14 1 RMOD1
RB2 14 15 3.1 RMOD2
RB3 15 12 2.7 RMOD3
RC 19 4 5 RMODC
RE 13 16 .24 RMODE
.MODEL RMOD1 R TC1=.8M
.MODEL RMOD2 R TC1=1.2M
.MODEL RMOD3 R TC1=1.8M
.MODEL RMODC R TC1=.6M
.MODEL RMODE R TC1=.6M
CB 19 3 .032P
D1 3 19 DMOD 782
D2 14 19 DMOD 629
D3 15 19 DMOD 365
CE 19 16 .032P
Q1 19 12 13 QDIS 420
.ENDS
*INCLUDE HPRF.LIB
**********
*SRC=HP41470;HP41470;BJTs NPN;RF;Low Noise
*SYM=RFNBJT
.SUBCKT HP41470 6 10 9
LT1 1 2 224.22P
CT1 1 0 140.14F
LT2 17 7 22.422P
CT2 7 0 56.054F
LT3 4 8 313.90P
CT3 8 0 196.19F
CEB 2 17 .02P
CEC 17 4 .01P
CBC 2 4 .02P
LB 2 3 .5NH
LE 16 17 .14NH
L1 10 1 .05NH
L2 7 9 .01NH
L3 8 6 .05NH
RB1 3 14 1 RMOD1
RB2 14 15 3.1 RMOD2
RB3 15 12 2.7 RMOD3
RC 19 4 5 RMODC
RE 13 16 .24 RMODE
.MODEL RMOD1 R TC1=.8M
.MODEL RMOD2 R TC1=1.2M
.MODEL RMOD3 R TC1=1.8M
.MODEL RMODC R TC1=.6M
.MODEL RMODE R TC1=.6M
CB 19 3 .032P
D1 3 19 DMOD 782
D2 14 19 DMOD 629
D3 15 19 DMOD 365
CE 19 16 .032P
Q1 19 12 13 QDIS 420
.ENDS
*INCLUDE HPRF.LIB
**********
*SRC=HP41485;HP41485;BJTs NPN;RF;Low Noise
*SYM=RFNBJT
.SUBCKT HP41485 6 10 9
LT1 1 2 495.76P
CT1 1 0 117.34F
LT2 17 7 76.271P
CT2 7 0 84.746F
LT3 4 8 305.08P
CT3 8 0 84.746F
CEB 2 17 .02P
CEC 17 4 .03P
CBC 2 4 .03P
LB 2 3 .55NH
LE 16 17 .1NH
L1 10 1 .05NH
L2 7 9 .01NH
L3 8 6 .05NH
RB1 3 14 1 RMOD1
RB2 14 15 3.1 RMOD2
RB3 15 12 2.7 RMOD3
RC 19 4 5 RMODC
RE 13 16 .24 RMODE
.MODEL RMOD1 R TC1=.8M
.MODEL RMOD2 R TC1=1.2M
.MODEL RMOD3 R TC1=1.8M
.MODEL RMODC R TC1=.6M
.MODEL RMODE R TC1=.6M
CB 19 3 .032P
D1 3 19 DMOD 782
D2 14 19 DMOD 629
D3 15 19 DMOD 365
CE 19 16 .032P
Q1 19 12 13 QDIS 420
.ENDS
*INCLUDE HPRF.LIB
**********
*SRC=HP41486;HP41486;BJTs NPN;RF;Low Noise
*SYM=RFNBJT
.SUBCKT HP41486 6 10 9
LT1 1 2 495.76P
CT1 1 0 117.34F
LT2 17 7 76.271P
CT2 7 0 84.746F
LT3 4 8 305.08P
CT3 8 0 84.746F
CEB 2 17 .02P
CEC 17 4 .03P
CBC 2 4 .03P
LB 2 3 .55NH
LE 16 17 .1NH
L1 10 1 .55NH
L2 7 9 .06NH
L3 8 6 .25NH
RB1 3 14 1 RMOD1
RB2 14 15 3.1 RMOD2
RB3 15 12 2.7 RMOD3
RC 19 4 5 RMODC
RE 13 16 .24 RMODE
.MODEL RMOD1 R TC1=.8M
.MODEL RMOD2 R TC1=1.2M
.MODEL RMOD3 R TC1=1.8M
.MODEL RMODC R TC1=.6M
.MODEL RMODE R TC1=.6M
CB 19 3 .032P
D1 3 19 DMOD 782
D2 14 19 DMOD 629
D3 15 19 DMOD 365
CE 19 16 .032P
Q1 19 12 13 QDIS 420
.ENDS
*INCLUDE HPRF.LIB
**********
*SRC=HP42000;HP42000;BJTs NPN;RF;Med. Power
*SYM=RFNBJT
.SUBCKT HP42000 6 10 9
LB 10 3 .5NH
LE 5 9 .2NH
RB1 3 14 .7 RMOD1
RB2 14 15 2.2 RMOD2
RB3 15 12 1.9 RMOD3
RC 19 6 5 RMODC
RE 13 5 .17 RMODE
.MODEL RMOD1 R TC1=.8M
.MODEL RMOD2 R TC1=1.2M
.MODEL RMOD3 R TC1=1.8M
.MODEL RMODC R TC1=.6M
.MODEL RMODE R TC1=.6M
CB 19 3 .034P
D1 3 19 DMOD 1051
D2 14 19 DMOD 899
D3 15 19 DMOD 522
CE 19 5 .034P
Q1 19 12 13 QDIS 600
.ENDS
*INCLUDE HPRF.LIB
**********
*SRC=HP42010;HP42010;BJTs NPN;RF;Med. Power
*SYM=RFNBJT
.SUBCKT HP42010 6 10 9
LT1 1 2 403.59P
CT1 1 0 199.30F
LT2 17 7 78.476P
CT2 7 0 64.062F
LT3 4 8 454.04P
CT3 8 0 224.22F
CEB 2 17 .03P
CEC 17 4 .03P
CBC 2 4 .05P
LB 2 3 .65NH
LE 16 17 .1NH
L1 10 1 .05NH
L2 7 9 .01NH
L3 8 6 .05NH
RB1 3 14 .7 RMOD1
RB2 14 15 2.2 RMOD2
RB3 15 12 1.9 RMOD3
RC 19 4 5 RMODC
RE 13 16 .17 RMODE
.MODEL RMOD1 R TC1=.8M
.MODEL RMOD2 R TC1=1.2M
.MODEL RMOD3 R TC1=1.8M
.MODEL RMODC R TC1=.6M
.MODEL RMODE R TC1=.6M
CB 19 3 .034P
D1 3 19 DMOD 1051
D2 14 19 DMOD 899
D3 15 19 DMOD 522
CE 19 16 .034P
Q1 19 12 13 QDIS 600
.ENDS
*INCLUDE HPRF.LIB
**********
*SRC=HP42035;HP42035;BJTs NPN;RF;Med. Power
*SYM=RFNBJT
.SUBCKT HP42035 6 10 9
LT1 1 2 510.09P
CT1 1 0 120.73F
LT2 17 7 100.90P
CT2 7 0 112.11F
LT3 4 8 728.70P
CT3 8 0 172.47F
CEB 2 17 .01P
CEC 17 4 .03P
CBC 2 4 .02P
LB 2 3 .6NH
LE 16 17 .3NH
L1 10 1 .05NH
L2 7 9 .01NH
L3 8 6 .05NH
RB1 3 14 .7 RMOD1
RB2 14 15 2.2 RMOD2
RB3 15 12 1.9 RMOD3
RC 19 4 5 RMODC
RE 13 16 .17 RMODE
.MODEL RMOD1 R TC1=.8M
.MODEL RMOD2 R TC1=1.2M
.MODEL RMOD3 R TC1=1.8M
.MODEL RMODC R TC1=.6M
.MODEL RMODE R TC1=.6M
CB 19 3 .034P
D1 3 19 DMOD 1051
D2 14 19 DMOD 899
D3 15 19 DMOD 522
CE 19 16 .034P
Q1 19 12 13 QDIS 600
.ENDS
*INCLUDE HPRF.LIB
**********
*SRC=HP42070;HP42070;BJTs NPN;RF;Med. Power
*SYM=RFNBJT
.SUBCKT HP42070 6 10 9
LT1 1 2 224.22P
CT1 1 0 140.14F
LT2 17 7 22.422P
CT2 7 0 56.054F
LT3 4 8 313.90P
CT3 8 0 196.19F
CEB 2 17 .02P
CEC 17 4 .01P
CBC 2 4 .02P
LB 2 3 .5NH
LE 16 17 .14NH
L1 10 1 .05NH
L2 7 9 .01NH
L3 8 6 .05NH
RB1 3 14 .7 RMOD1
RB2 14 15 2.2 RMOD2
RB3 15 12 1.9 RMOD3
RC 19 4 5 RMODC
RE 13 16 .17 RMODE
.MODEL RMOD1 R TC1=.8M
.MODEL RMOD2 R TC1=1.2M
.MODEL RMOD3 R TC1=1.8M
.MODEL RMODC R TC1=.6M
.MODEL RMODE R TC1=.6M
CB 19 3 .034P
D1 3 19 DMOD 1051
D2 14 19 DMOD 899
D3 15 19 DMOD 522
CE 19 16 .034P
Q1 19 12 13 QDIS 600
.ENDS
*INCLUDE HPRF.LIB
**********
*SRC=HP42085;HP42085;BJTs NPN;RF;Med. Power
*SYM=RFNBJT
.SUBCKT HP42085 6 10 9
LT1 1 2 495.76P
CT1 1 0 117.34F
LT2 17 7 76.271P
CT2 7 0 84.746F
LT3 4 8 305.08P
CT3 8 0 84.746F
CEB 2 17 .02P
CEC 17 4 .03P
CBC 2 4 .03P
LB 2 3 .55NH
LE 16 17 .1NH
L1 10 1 .05NH
L2 7 9 .01NH
L3 8 6 .05NH
RB1 3 14 .7 RMOD1
RB2 14 15 2.2 RMOD2
RB3 15 12 1.9 RMOD3
RC 19 4 5 RMODC
RE 13 16 .17 RMODE
.MODEL RMOD1 R TC1=.8M
.MODEL RMOD2 R TC1=1.2M
.MODEL RMOD3 R TC1=1.8M
.MODEL RMODC R TC1=.6M
.MODEL RMODE R TC1=.6M
CB 19 3 .034P
D1 3 19 DMOD 1051
D2 14 19 DMOD 899
D3 15 19 DMOD 522
CE 19 16 .034P
Q1 19 12 13 QDIS 600
.ENDS
*INCLUDE HPRF.LIB
**********
*SRC=HP42086;HP42086;BJTs NPN;RF;Med. Power
*SYM=RFNBJT
.SUBCKT HP42086 6 10 9
LT1 1 2 495.76P
CT1 1 0 117.34F
LT2 17 7 76.271P
CT2 7 0 84.746F
LT3 4 8 305.08P
CT3 8 0 84.746F
CEB 2 17 .02P
CEC 17 4 .03P
CBC 2 4 .03P
LB 2 3 .55NH
LE 16 17 .1NH
L1 10 1 .55NH
L2 7 9 .06NH
L3 8 6 .25NH
RB1 3 14 .7 RMOD1
RB2 14 15 2.2 RMOD2
RB3 15 12 1.9 RMOD3
RC 19 4 5 RMODC
RE 13 16 .17 RMODE
.MODEL RMOD1 R TC1=.8M
.MODEL RMOD2 R TC1=1.2M
.MODEL RMOD3 R TC1=1.8M
.MODEL RMODC R TC1=.6M
.MODEL RMODE R TC1=.6M
CB 19 3 .034P
D1 3 19 DMOD 1051
D2 14 19 DMOD 899
D3 15 19 DMOD 522
CE 19 16 .034P
Q1 19 12 13 QDIS 600
.ENDS
*INCLUDE HPRF.LIB
**********
*SRC=HP60100;HP60100;BJTs NPN;RF;Low Noise
*SYM=RFNBJT
.SUBCKT HP60100 6 10 9
LB 10 3 .5NH
LE 5 9 .2NH
RB1 3 14 19.6 RMOD1
RB2 14 15 51.7 RMOD2
RB3 15 12 37.5 RMOD3
RC 19 6 5 RMODC
RE 13 5 3.32 RMODE
.MODEL RMOD1 R TC1=.8M
.MODEL RMOD2 R TC1=1.2M
.MODEL RMOD3 R TC1=1.8M
.MODEL RMODC R TC1=.6M
.MODEL RMODE R TC1=.6M
CB 19 3 .025P
D1 3 19 DMOD 197
D2 14 19 DMOD 103
D3 15 19 DMOD 26
CE 19 5 .025P
Q1 19 12 13 QDIS 30
.ENDS
*INCLUDE HPRF.LIB
**********
*SRC=HP60111;HP60111;BJTs NPN;RF;Low Noise
*SYM=RFNBJT
.SUBCKT HP60111 6 10 9
LT1 1 2 426.37P
CT1 1 0 210.55F
LT2 17 7 113.70P
CT2 7 0 126.33F
LT3 4 8 511.64P
CT3 8 0 252.66F
CEB 2 17 .04P
CEC 17 4 .01P
CBC 2 4 .04P
LB 2 3 .5NH
LE 16 17 .25NH
L1 10 1 .05NH
L2 7 9 .01NH
L3 8 6 .05NH
RB1 3 14 19.6 RMOD1
RB2 14 15 51.7 RMOD2
RB3 15 12 37.5 RMOD3
RC 19 4 5 RMODC
RE 13 16 3.32 RMODE
.MODEL RMOD1 R TC1=.8M
.MODEL RMOD2 R TC1=1.2M
.MODEL RMOD3 R TC1=1.8M
.MODEL RMODC R TC1=.6M
.MODEL RMODE R TC1=.6M
CB 19 3 .025P
D1 3 19 DMOD 197
D2 14 19 DMOD 103
D3 15 19 DMOD 26
CE 19 16 .025P
Q1 19 12 13 QDIS 30
.ENDS
*INCLUDE HPRF.LIB
**********
*SRC=HP60200;HP60200;BJTs NPN;RF;Low Noise
*SYM=RFNBJT
.SUBCKT HP60200 6 10 9
LB 10 3 .5NH
LE 5 9 .2NH
RB1 3 14 10.2 RMOD1
RB2 14 15 25.9 RMOD2
RB3 15 12 18.8 RMOD3
RC 19 6 5 RMODC
RE 13 5 1.66 RMODE
.MODEL RMOD1 R TC1=.8M
.MODEL RMOD2 R TC1=1.2M
.MODEL RMOD3 R TC1=1.8M
.MODEL RMODC R TC1=.6M
.MODEL RMODE R TC1=.6M
CB 19 3 .025P
D1 3 19 DMOD 242
D2 14 19 DMOD 206
D3 15 19 DMOD 52
CE 19 5 .025P
Q1 19 12 13 QDIS 60
.ENDS
*INCLUDE HPRF.LIB
**********
*SRC=HP60211;HP60211;BJTs NPN;RF;Low Noise
*SYM=RFNBJT
.SUBCKT HP60211 6 10 9
LT1 1 2 426.37P
CT1 1 0 210.55F
LT2 17 7 113.70P
CT2 7 0 126.33F
LT3 4 8 511.64P
CT3 8 0 252.66F
CEB 2 17 .04P
CEC 17 4 .01P
CBC 2 4 .04P
LB 2 3 .5NH
LE 16 17 .25NH
L1 10 1 .05NH
L2 7 9 .01NH
L3 8 6 .05NH
RB1 3 14 10.2 RMOD1
RB2 14 15 25.9 RMOD2
RB3 15 12 18.8 RMOD3
RC 19 4 5 RMODC
RE 13 16 1.66 RMODE
.MODEL RMOD1 R TC1=.8M
.MODEL RMOD2 R TC1=1.2M
.MODEL RMOD3 R TC1=1.8M
.MODEL RMODC R TC1=.6M
.MODEL RMODE R TC1=.6M
CB 19 3 .025P
D1 3 19 DMOD 242
D2 14 19 DMOD 206
D3 15 19 DMOD 52
CE 19 16 .025P
Q1 19 12 13 QDIS 60
.ENDS
*INCLUDE HPRF.LIB
**********
*SRC=HP60500;HP60500;BJTs NPN;RF;Low Noise
*SYM=RFNBJT
.SUBCKT HP60500 6 10 9
LB 10 3 .5NH
LE 5 9 .2NH
RB1 3 14 4.2 RMOD1
RB2 14 15 10.3 RMOD2
RB3 15 12 7.5 RMOD3
RC 19 6 5 RMODC
RE 13 5 .66 RMODE
.MODEL RMOD1 R TC1=.8M
.MODEL RMOD2 R TC1=1.2M
.MODEL RMOD3 R TC1=1.8M
.MODEL RMODC R TC1=.6M
.MODEL RMODE R TC1=.6M
CB 19 3 .026P
D1 3 19 DMOD 377
D2 14 19 DMOD 515
D3 15 19 DMOD 131
CE 19 5 .026P
Q1 19 12 13 QDIS 150
.ENDS
*INCLUDE HPRF.LIB
**********
*SRC=HP60510;HP60510;BJTs NPN;RF;Low Noise
*SYM=RFNBJT
.SUBCKT HP60510 6 10 9
LT1 1 2 403.59P
CT1 1 0 199.30F
LT2 17 7 78.476P
CT2 7 0 64.062F
LT3 4 8 454.04P
CT3 8 0 224.22F
CBC 2 4 .05P
CEB 2 17 .03P
CEC 17 4 .03P
LB 2 3 .65NH
LE 16 17 .1NH
L1 10 1 .05NH
L2 7 9 .01NH
L3 8 6 .05NH
RB1 3 14 4.2 RMOD1
RB2 14 15 10.3 RMOD2
RB3 15 12 7.5 RMOD3
RC 19 4 5 RMODC
RE 13 16 .66 RMODE
.MODEL RMOD1 R TC1=.8M
.MODEL RMOD2 R TC1=1.2M
.MODEL RMOD3 R TC1=1.8M
.MODEL RMODC R TC1=.6M
.MODEL RMODE R TC1=.6M
CB 19 3 .026P
D1 3 19 DMOD 377
D2 14 19 DMOD 515
D3 15 19 DMOD 131
CE 19 16 .026P
Q1 19 12 13 QDIS 150
.ENDS
*INCLUDE HPRF.LIB
**********
*SRC=HP60535;HP60535;BJTs NPN;RF;Low Noise
*SYM=RFNBJT
.SUBCKT HP60535 6 10 9
LT1 1 2 510.09P
CT1 1 0 120.73F
LT2 17 7 100.90P
CT2 7 0 112.11F
LT3 4 8 728.70P
CT3 8 0 172.47F
CEB 2 17 .01P
CEC 17 4 .03P
CBC 2 4 .02P
LB 2 3 .6NH
LE 16 17 .3NH
L1 10 1 .05NH
L2 7 9 .01NH
L3 8 6 .05NH
RB1 3 14 4.2 RMOD1
RB2 14 15 10.3 RMOD2
RB3 15 12 7.5 RMOD3
RC 19 4 5 RMODC
RE 13 16 .66 RMODE
.MODEL RMOD1 R TC1=.8M
.MODEL RMOD2 R TC1=1.2M
.MODEL RMOD3 R TC1=1.8M
.MODEL RMODC R TC1=.6M
.MODEL RMODE R TC1=.6M
CB 19 3 .026P
D1 3 19 DMOD 377
D2 14 19 DMOD 515
D3 15 19 DMOD 131
CE 19 16 .026P
Q1 19 12 13 QDIS 150
.ENDS
*INCLUDE HPRF.LIB
**********
*SRC=HP60570;HP60570;BJTs NPN;RF;Low Noise
*SYM=RFNBJT
.SUBCKT HP60570 6 10 9
LT1 1 2 224.22P
CT1 1 0 140.14F
LT2 17 7 22.422P
CT2 7 0 56.054F
LT3 4 8 313.90P
CT3 8 0 196.19F
CEB 2 17 .02P
CEC 17 4 .01P
CBC 2 4 .02P
LB 2 3 .5NH
LE 16 17 .14NH
L1 10 1 .05NH
L2 7 9 .01NH
L3 8 6 .05NH
RB1 3 14 4.2 RMOD1
RB2 14 15 10.3 RMOD2
RB3 15 12 7.5 RMOD3
RC 19 4 5 RMODC
RE 13 16 .66 RMODE
.MODEL RMOD1 R TC1=.8M
.MODEL RMOD2 R TC1=1.2M
.MODEL RMOD3 R TC1=1.8M
.MODEL RMODC R TC1=.6M
.MODEL RMODE R TC1=.6M
CB 19 3 .026P
D1 3 19 DMOD 377
D2 14 19 DMOD 515
D3 15 19 DMOD 131
CE 19 16 .026P
Q1 19 12 13 QDIS 150
.ENDS
*INCLUDE HPRF.LIB
**********
*SRC=HP60585;HP60585;BJTs NPN;RF;Low Noise
*SYM=RFNBJT
.SUBCKT HP60585 6 10 9
LT1 1 2 495.76P
CT1 1 0 117.34F
LT2 17 7 76.271P
CT2 7 0 84.746F
LT3 4 8 305.08P
CT3 8 0 84.746F
CEB 2 17 .02P
CEC 17 4 .03P
CBC 2 4 .03P
LB 2 3 .55NH
LE 16 17 .1NH
L1 10 1 .05NH
L2 7 9 .01NH
L3 8 6 .05NH
RB1 3 14 4.2 RMOD1
RB2 14 15 10.3 RMOD2
RB3 15 12 7.5 RMOD3
RC 19 4 5 RMODC
RE 13 16 .66 RMODE
.MODEL RMOD1 R TC1=.8M
.MODEL RMOD2 R TC1=1.2M
.MODEL RMOD3 R TC1=1.8M
.MODEL RMODC R TC1=.6M
.MODEL RMODE R TC1=.6M
CB 19 3 .026P
D1 3 19 DMOD 377
D2 14 19 DMOD 515
D3 15 19 DMOD 131
CE 19 16 .026P
Q1 19 12 13 QDIS 150
.ENDS
*INCLUDE HPRF.LIB
**********
*SRC=HP60586;HP60586;BJTs NPN;RF;Low Noise
*SYM=RFNBJT
.SUBCKT HP60586 6 10 9
LT1 1 2 495.76P
CT1 1 0 117.34F
LT2 17 7 76.271P
CT2 7 0 84.746F
LT3 4 8 305.08P
CT3 8 0 84.746F
CEB 2 17 .02P
CEC 17 4 .03P
CBC 2 4 .03P
LB 2 3 .55NH
LE 16 17 .1NH
L1 10 1 .55NH
L2 7 9 .06NH
L3 8 6 .25NH
RB1 3 14 4.2 RMOD1
RB2 14 15 10.3 RMOD2
RB3 15 12 7.5 RMOD3
RC 19 4 5 RMODC
RE 13 16 .66 RMODE
.MODEL RMOD1 R TC1=.8M
.MODEL RMOD2 R TC1=1.2M
.MODEL RMOD3 R TC1=1.8M
.MODEL RMODC R TC1=.6M
.MODEL RMODE R TC1=.6M
CB 19 3 .026P
D1 3 19 DMOD 377
D2 14 19 DMOD 515
D3 15 19 DMOD 131
CE 19 16 .026P
Q1 19 12 13 QDIS 150
.ENDS
*INCLUDE HPRF.LIB
**********
*SRC=HP64000;HP64000;BJTs NPN;RF;Linear Power
*SYM=RFNBJT
.SUBCKT HP64000 6 10 9
LB 10 3 .5NH
LE 5 9 .2NH
RB1 3 14 .4 RMOD1
RB2 14 15 1.2 RMOD2
RB3 15 12 .98 RMOD3
RC 19 6 1.3 RMODC
RE 13 16 .06 RMODE
RBAL 16 5 1.65 RBAL
.MODEL RMOD1 R TC1=.8M
.MODEL RMOD2 R TC1=1.2M
.MODEL RMOD3 R TC1=1.8M
.MODEL RMODC R TC1=.6M
.MODEL RMODE R TC1=.6M
.MODEL RBAL  R TC1=.8M
CB 19 3 .082P
D1 3 19 DMOD 2287
D2 14 19 DMOD 4692
D3 15 19 DMOD 1360
D4 16 19 DMOD 1717
CE 19 5 .104P
Q1 19 12 13 QPWR 1560
.ENDS
*INCLUDE HPRF.LIB
**********
*SRC=HP64020;HP64020;BJTs NPN;RF;Linear Power
*SYM=RFNBJT
.SUBCKT HP64020 6 10 9
LT1 1 2 742.67P
CT1 1 0 297.07F
LT2 17 7 121.94P
CT2 7 0 195.10F
LT3 4 8 1.4389N
CT3 8 0 575.57F
CEB 2 17 .04P
CEC 17 4 .02P
CBC 2 4 .02P
LB 2 3 .55NH
LE 5 17 .2NH
L1 10 1 .05NH
L2 7 9 .01NH
L3 8 6 .05NH
RB1 3 14 .4 RMOD1
RB2 14 15 1.2 RMOD2
RB3 15 12 .98 RMOD3
RC 19 6 1.3 RMODC
RE 13 16 .06 RMODE
RBAL 16 5 1.65 RBAL
.MODEL RMOD1 R TC1=.8M
.MODEL RMOD2 R TC1=1.2M
.MODEL RMOD3 R TC1=1.8M
.MODEL RMODC R TC1=.6M
.MODEL RMODE R TC1=.6M
.MODEL RBAL  R TC1=.8M
CB 19 3 .082P
D1 3 19 DMOD 2287
D2 14 19 DMOD 4692
D3 15 19 DMOD 1360
D4 16 19 DMOD 1717
CE 19 5 .108P
Q1 19 12 13 QPWR 1560
.ENDS
*INCLUDE HPRF.LIB
**********
*SRC=HP64023;HP64023;BJTs NPN;RF;Linear Power
*SYM=RFNBJT
.SUBCKT HP64023 6 10 9
LTB 10 2 857.57P
CTB 2 0 535.98F
LTC 8 6 857.57P
CTC 8 0 535.98F
LPAD 4 17 552.47P
CPAD 17 0 883.96F
LB1 2 11 .35NH
CIN 11 0 3P
LB2 11 3 .2NH
LE 5 9 .1NH
LC 4 8 .4NH
CGAP 4 9 .1P
CBE 3 9 .03P
CBC 3 8 .03P
CEC 8 9 .03P
RB1 3 14 .4 RMOD1
RB2 14 15 1.2 RMOD2
RB3 15 12 .98 RMOD3
RC 19 4 1.3 RMODC
RE 13 16 .06 RMODE
RBAL 16 5 1.65 RBAL
.MODEL RMOD1 R TC1=.8M
.MODEL RMOD2 R TC1=1.2M
.MODEL RMOD3 R TC1=1.8M
.MODEL RMODC R TC1=.6M
.MODEL RMODE R TC1=.6M
.MODEL RBAL R TC1=.8M
CB 19 3 .082P
D1 3 19 DMOD 2287
D2 14 19 DMOD 4692
D3 15 19 DMOD 1360
CE 19 16 .108P
D4 16 5 DMOD 1717
Q1 19 12 13 QPWR 1560
.ENDS
*INCLUDE HPRF.LIB
**********
* Library of GaAs Mesfet Models from H-P
*
* IMPORTANT NOTE: The models in this library are linear ONLY.
* They may only be used with the AC and DC analyses. Do not use
* them in the Transient analysis.
* 
* This file includes die models (those subcircuits that end with
* the number 00) and die models connected to various package models.
* When the die is connected to the package model, only the lead 
* inductance from the package model is used.
**********
*SRC=ATF10170;ATF10170;GaAs MESFETs;N Channel;Low Noise
*SYM=NMESFET
.SUBCKT ATF10170 1 2 3
*Connections     D G S
*Bias 2V 20mA
LGP 6 7 .5N
LDP 5 15 .5N
LSP 9 12 .15N
LT1 2 6 224.22P
CT1 2 0 140.14F
LT2 12 3 22.422P
CT2 3 0 56.054F
LT3 15 1 224.22P
CT3 1 0 140.14F
CGSP 6 12 .05P
CDSP 12 15 .05P
CGDP 6 15 .005P
RC 13 10 2
RG 7 8 2.5
RS 10 9 2
CGS 8 13 .25P
CGD 8 5 .1P
CDS 5 10 .1P
G1 5 10 8 13 70
RDS 5 10 200
.ENDS
*INCLUDE HPRF.LIB
**********
*SRC=ATF10100;ATF10100;GaAs MESFETs;N Channel;Low Noise
*SYM=NMESFET
.SUBCKT ATF10100 14 7 11
*Connections      D G S
*Bias 2V 20mA
LG 7 4 .9N
LD 5 14 .6N
LS 9 11 .15N
RC 13 10 2
RG 4 8 2.5
RS 10 9 2
CGS 8 13 .25P
CGD 8 5 .1P
CDS 5 10 .1P
G1 5 10 8 13 70
RDS 5 10 200
.ENDS
*INCLUDE HPRF.LIB
**********
*SRC=ATF10700;ATF10700;GaAs MESFETs;N Channel;Low Noise
*SYM=NMESFET
.SUBCKT ATF10700 14 7 11
*Connections      D G S
*Bias 2V 20mA
LG 7 4 .9N
LD 5 14 .6N
LS 9 11 .15N
RC 13 10 2
RG 4 8 3
RS 10 9 2
CGS 8 13 .4P
CGD 8 5 .15P
CDS 5 10 .1P
G1 5 10 8 13 60
RDS 5 10 200
.ENDS
*INCLUDE HPRF.LIB
**********
*SRC=ATF13100;ATF13100;GaAs MESFETs;N Channel;Low Noise
*SYM=NMESFET
.SUBCKT ATF13100 14 7 11
*Connections      D G S
*Bias 3V 20mA
LG 7 4 .9N
LD 5 14 .6N
LS 9 11 .15N
RC 13 10 2
RG 4 8 3
RS 10 9 .5
CGS 8 13 .14P
CGD 8 5 .05P
CDS 5 10 .03P
G1 5 10 8 13 50
RDS 5 10 250
.ENDS
*INCLUDE HPRF.LIB
**********
*SRC=ATF13300;ATF13300;GaAs MESFETs;N Channel;Low Noise
*SYM=NMESFET
.SUBCKT ATF13300 14 7 11
*Connections      D G S
*Bias 2V 20mA
LG 7 4 .9N
LD 5 14 .6N
LS 9 11 .15N
RC 13 10 2
RG 4 8 3
RS 10 9 .5
CGS 8 13 .2P
CGD 8 5 .05P
CDS 5 10 .03P
G1 5 10 8 13 40
RDS 5 10 250
.ENDS
*INCLUDE HPRF.LIB
**********
*SRC=ATF13700;ATF13700;GaAs MESFETs;N Channel;Low Noise
*SYM=NMESFET
.SUBCKT ATF13700 14 7 11
*Connections      D G S
*Bias 3V 20mA
LG 7 4 .9N
LD 5 14 .6N
LS 9 11 .15N
RC 13 10 2
RG 4 8 3
RS 10 9 2
CGS 8 13 .2P
CGD 8 5 .05P
CDS 5 10 .03P
G1 5 10 8 13 40
RDS 5 10 250
.ENDS
*INCLUDE HPRF.LIB
**********
*SRC=ATF21100;ATF21100;GaAs MESFETs;N Channel;Gen. Purp.
*SYM=NMESFET
.SUBCKT ATF21100 14 7 11
*Connections      D G S
*Bias 3V 30mA
LG 7 4 .4N
LD 5 14 .5N
LS 9 11 .15N
RC 13 10 1.5
RG 4 8 1.5
RS 10 9 1
CGS 8 13 .7P
CGD 8 5 .1P
CDS 5 10 .14P
G1 5 10 8 13 68
RDS 5 10 180
.ENDS
*INCLUDE HPRF.LIB
**********
*SRC=ATF21170;ATF21170;GaAs MESFETs;N Channel;3V 20mA
*SYM=NMESFET
.SUBCKT ATF21170 1 2 3
*Connections     D G S
*Bias 3V 30mA
LGP 6 7 .5N
LDP 5 15 .5N
LSP 9 12 .15N
LT1 2 6 224.22P
CT1 2 0 140.14F
LT2 12 3 22.422P
CT2 3 0 56.054F
LT3 15 1 224.22P
CT3 1 0 140.14F
CGSP 6 12 .05P
CDSP 12 15 .05P
CGDP 6 15 .005P
RC 13 10 1.5
RG 7 8 1.5
RS 10 9 1
CGS 8 13 .7P
CGD 8 5 .1P
CDS 5 10 .14P
G1 5 10 8 13 68
RDS 5 10 180
.ENDS
*INCLUDE HPRF.LIB
**********
*SRC=ATF25100;ATF25100;GaAs MESFETs;N Channel;Low Noise
*SYM=NMESFET
.SUBCKT ATF25100 14 7 11
*Connections      D G S
*Bias 3V 20mA
LG 7 4 .4N
LD 5 14 .7N
LS 9 11 .15N
RC 13 10 2
RG 4 8 2.5
RS 10 9 1
CGS 8 13 .36P
CGD 8 5 .07P
CDS 5 10 .16P
G1 5 10 8 13 48
RDS 5 10 150
.ENDS
*INCLUDE HPRF.LIB
**********
*SRC=ATF25170;ATF25170;GaAs MESFETs;N Channel;Low Noise
*SYM=NMESFET
.SUBCKT ATF25170 1 2 3
*Connections     D G S
*Bias 3V 20mA
LGP 6 7 .5N
LDP 5 15 .5N
LSP 9 12 .15N
LT1 2 6 224.22P
CT1 2 0 140.14F
LT2 12 3 22.422P
CT2 3 0 56.054F
LT3 15 1 224.22P
CT3 1 0 140.14F
CGSP 6 12 .05P
CDSP 12 15 .05P
CGDP 6 15 .005P
RC 13 10 2
RG 7 8 2.5
RS 10 9 1
CGS 8 13 .36P
CGD 8 5 .07P
CDS 5 10 .16P
G1 5 10 8 13 48
RDS 5 10 150
.ENDS
*INCLUDE HPRF.LIB
**********
*SRC=ATF26100;ATF26100;GaAs MESFETs;N Channel;Gen. Purp.
*SYM=NMESFET
.SUBCKT ATF26100 14 7 11
*Connections      D G S
*Bias 3V 10mA
LG 7 4 .6N
LD 5 14 .7N
LS 9 11 .15N
RC 13 10 2
RG 4 8 5
RS 10 9 5
CGS 8 13 .16P
CGD 8 5 .03P
CDS 5 10 .06P
G1 5 10 8 13 27
RDS 5 10 275
.ENDS
*INCLUDE HPRF.LIB
**********
*SRC=ATF26150;ATF26150;GaAs MESFETs;N Channel;Gen. Purp.
*SYM=NMESFET
.SUBCKT ATF26150 1 2 3
*Connections     D G S
*Bias 3V 10mA
LGP 6 7 .5N
LDP 5 15 .8N
LSP 9 12 .15N
LT1 2 6 218.61P
CT1 2 0 51.742F
LT2 12 3 33.632P
CT2 3 0 37.369F
LT3 15 1 291.48P
CT3 1 0 68.990F
CGSP 6 12 .1P
CDSP 12 15 .1P
CGDP 6 15 .005P
RC 13 10 2
RG 7 8 5
RS 10 9 5
CGS 8 13 .16P
CGD 8 5 .03P
CDS 5 10 .06P
G1 5 10 8 13 27
RDS 5 10 275
.ENDS
*INCLUDE HPRF.LIB
**********
*SRC=ATF35X00;ATF35X00;GaAs MESFETs;N Channel;Low Noise
*SYM=NMESFET
.SUBCKT ATF35X00 14 7 11
*Connections      D G S
*Bias 1.5V 10mA
LG 7 4 29.4P
LD 5 14 26.6P
LS 9 11 5P
RC 13 10 5
RG 4 8 1
RS 10 9 .5
CGS 8 13 .088P
CGD 8 5 .0459P
CDS 5 10 .0527P
G1 5 10 8 13 53.7
RDS 5 10 105.1
.ENDS
*INCLUDE HPRF.LIB
**********
*SRC=ATF35076;ATF35076;GaAs MESFETs;N Channel;Low Noise
*SYM=NMESFET
.SUBCKT ATF35076 1 2 3
*Connections     D G S
*Bias 1.5V 10mA
LGP 6 7 .5N
LDP 5 15 .5N
LSP 9 12 .15N
LT1 2 6 224.22P
CT1 2 0 140.14F
LT2 12 3 22.422P
CT2 3 0 56.054F
LT3 15 1 224.22P
CT3 1 0 140.14F
CGSP 6 12 .05P
CDSP 12 15 .05P
CGDP 6 15 .005P
RC 13 10 5
RG 7 8 1
RS 10 9 .5
CGS 8 13 .088P
CGD 8 5 .0459P
CDS 5 10 .0527P
G1 5 10 8 13 53.7
RDS 5 10 105.1
.ENDS
*INCLUDE HPRF.LIB
**********
*SRC=ATF44100;ATF44100;GaAs MESFETs;N Channel;Med. Power
*SYM=NMESFET
.SUBCKT ATF44100 14 7 11
*Connections      D G S
*Bias 9V 500mA
LG 7 4 .2N
LD 5 14 .2N
LS 9 11 .03N
RC 13 10 .15
RG 4 8 .02
RS 10 9 .16
CGS 8 13 3P
CGD 8 5 .3P
CDS 5 10 1.35P
G1 5 10 8 13 350
RDS 5 10 15
.ENDS
*INCLUDE HPRF.LIB
**********
*SRC=ATF44101;ATF44101;GaAs MESFETs;N Channel;Med. Power
*SYM=NMESFET
.SUBCKT ATF44101 1 2 3
*Connections     D G S
*Bias 9V 500mA
LGP 6 7 .65N
LDP 5 15 .5N
LSP 9 12 .15N
LT1 2 6 403.59P
CT1 2 0 199.30F
LT2 12 3 78.476P
CT2 3 0 64.062F
LT3 15 1 454.04P
CT3 1 0 224.22F
CGSP 6 12 .03P
CDSP 12 15 .03P
CGDP 6 15 .03P
RC 13 10 .15
RG 7 8 .02
RS 10 9 .16
CGS 8 13 3P
CGD 8 5 .3P
CDS 5 10 1.35P
G1 5 10 8 13 350
RDS 5 10 15
.ENDS
*INCLUDE HPRF.LIB
**********
*SRC=ATF45100;ATF45100;GaAs MESFETs;N Channel;Med. Power
*SYM=NMESFET
.SUBCKT ATF45100 14 7 11
*Connections      D G S
*Bias 9V 250mA
LG 7 4 .2N
LD 5 14 .2N
LS 9 11 .06N
RC 13 10 .3
RG 4 8 .75
RS 10 9 .32
CGS 8 13 1.5P
CGD 8 5 .2P
CDS 5 10 .7P
G1 5 10 8 13 175
RDS 5 10 30
.ENDS
*INCLUDE HPRF.LIB
**********
*SRC=ATF45101;ATF45101;GaAs MESFETs;N Channel;Med. Power
*SYM=NMESFET
.SUBCKT ATF45101 1 2 3
*Connections     D G S
*Bias 9V 250mA
LGP 6 7 .65N
LDP 5 15 .5N
LSP 9 12 .15N
LT1 2 6 403.59P
CT1 2 0 199.30F
LT2 12 3 78.476P
CT2 3 0 64.062F
LT3 15 1 454.04P
CT3 1 0 224.22F
CGSP 6 12 .03P
CDSP 12 15 .03P
CGDP 6 15 .03P
RC 13 10 .3
RG 7 8 .75
RS 10 9 .32
CGS 8 13 1.5P
CGD 8 5 .2P
CDS 5 10 .7P
G1 5 10 8 13 175
RDS 5 10 30
.ENDS
*INCLUDE HPRF.LIB
**********
*SRC=ATF45171;ATF45171;GaAs MESFETs;N Channel;Med. Power
*SYM=NMESFET
.SUBCKT ATF45171 1 2 3
*Connections     D G S
*Bias 9V 250mA
LGP 6 7 .5N
LDP 5 15 .5N
LSP 9 12 .15N
LT1 2 6 224.22P
CT1 2 0 140.14F
LT2 12 3 22.422P
CT2 3 0 56.054F
LT3 15 1 224.22P
CT3 1 0 140.14F
CGSP 6 12 .05P
CDSP 12 15 .05P
CGDP 6 15 .005P
RC 13 10 .3
RG 7 8 .75
RS 10 9 .32
CGS 8 13 1.5P
CGD 8 5 .2P
CDS 5 10 .7P
G1 5 10 8 13 175
RDS 5 10 30
.ENDS
*INCLUDE HPRF.LIB
**********
*SRC=ATF46100;ATF46100;GaAs MESFETs;N Channel;Med. Power
*SYM=NMESFET
.SUBCKT ATF46100 14 7 11
*Connections      D G S
*Bias 9V 125mA
LG 7 4 .2N
LD 5 14 .2N
LS 9 11 .1N
RC 13 10 .6
RG 4 8 1.5
RS 10 9 .6
CGS 8 13 .8P
CGD 8 5 .1P
CDS 5 10 .35P
G1 5 10 8 13 80
RDS 5 10 55
.ENDS
*INCLUDE HPRF.LIB
**********
*SRC=ATF46101;ATF46101;GaAs MESFETs;N Channel;Med. Power
*SYM=NMESFET
.SUBCKT ATF46101 1 2 3
*Connections     D G S
*Bias 9V 250mA
LGP 6 7 .65N
LDP 5 15 .5N
LSP 9 12 .15N
LT1 2 6 403.59P
CT1 2 0 199.30F
LT2 12 3 78.476P
CT2 3 0 64.062F
LT3 15 1 454.04P
CT3 1 0 224.22F
CGSP 6 12 .03P
CDSP 12 15 .03P
CGDP 6 15 .03P
RC 13 10 .6
RG 7 8 1.5
RS 10 9 .6