**********
* Copyright Intusoft 1993-1997
* All Rights Reserved
**********
***********
82430 PCMC (controller) CLK
Pin   Type   Signal_name   Model_name   Spice_name   Spice_version
?     O      CLK+Others    PC080801     PC0808OT     3, (IBIS Level 1)
82375SB
Pin   Type   Signal_name   Model_name            Spice_name      Spice_version
3   I/O      LA31          PCEBB12211A0S2AZZZZC  PCEBBCO/PCEBBI  3, (IBIS Level 1)
167   I      BCLK          PCEBI00000A0S2AZZNMC  PCEBI000        3, (IBIS Level 1)
3   I/O      LA31          PCEBB12211A0S2AZZZZC  PCEBB2O/PCEBB2I 2G, (IBIS Level 2)
167   I      BCLK          PCEBI00000A0S2AZZNMC  PCEBI002        2G, (IBIS Level 2)
82375EB
Pin   Type   Signal_name   Model_name    Spice_name         Spice_version
3   I/O      LA31          PB061202      PB0612O/PB0612I    3, (IBIS Level 1)
167   I      BCLK          PB777700      PB7777I            3, (IBIS Level 1)
3   I/O      LA31          PB061202      PB06122O/PB06122I  2G, (IBIS Level 2)
167   I      BCLK          PB777700      PB7777I2           2G, (IBIS Level 2)
82374SB
Pin   Type   Signal_name   Model_name           Spice_name   Spice_version
139   I      IRQ3          ESCI00000A0S2AZZNMC  ESCI00I      3, (IBIS Level 1)

Note: for I/O pins there are two models Spice_name_O and SPICE_name_I.
Make sure to use the appropriate model.

I/O VOLTAGE LEVELS
        Input Voltage    Supply Voltage   Enable Voltage  Program Required
IBIS1     Rail-Rail         Rail-Rail       Rail-Rail      IsSpice3
IBIS2     0 - 1V            Rail-Rail       0 - 1V         SPICE 2G.6
IBIS3     Rail-Rail         Rail-Rail       Rail-Rail      IsSpice3

Note: IBIS level 2 REQUIRES 0 - 1V levels for both the input and enable
lines.

***********
*SRC=PC0808OT;PC0808OT;CMOS;IBIS(O Only);82430 PCMC CLK SPICE3
*SYM=IBISO
.SUBCKT PC0808OT 100   4      300 400 500
*Connections         Input Output VCC VEE Enable
*DEFINE {RTF}=8.8679K
*DEFINE {RTR}=6.947K
* Input Control
B1 820 0 V=V(100) & V(500)
B2 830 0 V= V(500) & ~V(100)
* Up and Down Ramps
B3 300 850 I= V(830) > 1.2   ? 0 : V(300,850) / {RTR}
B4 840 400 I= V(820) > 1.2 ? 0 : V(840,400) / {RTF}
C1 300 850 .01P
C2 840 400 .01P
S1 220 850 0 820 SMOD
S2 840 220 0 830 SMOD
.MODEL SMOD SW RON=.1M ROFF=1E15 VT=-1.2 VH=.1
G1 8 400 2 8 1
R1 6 400 1
G2 300 8 8 3 1
R2 300 6 1
* Pull-up/Pull-down structures; Max
XEPL_DN 2 400 8 840 EPWL_DNX
XEPL_UP 3 300 850 8 EPWL_UPX
* Diode Clamps
XVCC_OUT 6 300 300 6 VCC_OUT
XGND_OUT 6 400 6 400 GND_OUT
* Package Parasitics; Min
ROSNB 5 1 100
ROPKG 1 4 .038
COPKG 4 400 0.94P
CCOMP 5 400 3.72P
LOPKG 5 1 7.59N
* Voltage Sources for measuring currents
V5 6 5 
V6 8 6 
V7 220 8 
.ENDS
*Subcircuits for the IBIS1 Topology
.SUBCKT GND_OUT  3    4    1   2
*                OUT+ OUT- IN+ IN-
B1 3 4 I= 
+ (V(1,2) < -5.0000000) ? 1.0000000N*V(1,2) + -1.1500000 :
+ (V(1,2) < -1.1000000) ? 269.61537M*V(1,2) + 198.07691M :
+ (V(1,2) < -1.0000000) ? 269.99999M*V(1,2) + 198.49999M :
+ (V(1,2) < -899.99996M) ? 254.99999M*V(1,2) + 183.49999M :
+ (V(1,2) < -799.99996M) ? 219.99999M*V(1,2) + 151.99999M :
+ (V(1,2) < -699.99997M) ? 150.99999M*V(1,2) + 96.799995M :
+ (V(1,2) < -599.99997M) ? 56.999997M*V(1,2) + 30.999999M :
+ (V(1,2) < -499.99998M) ? 19.799999M*V(1,2) + 8.6799996M :
+ (V(1,2) < -399.99998M) ? 7.8999996M*V(1,2) + 2.7299999M :
+ (V(1,2) < -299.99999M) ? 2.3499999M*V(1,2) + 510.00000U :
+ (V(1,2) < -199.99999M) ? 1.0000000M*V(1,2) + 105.00000U :
+ (V(1,2) < -99.999995M) ? 600.00000U*V(1,2) + 25.000000U :
+ (V(1,2) < 0.0000000E+00) ? 350.00000U*V(1,2) + 0.0000000E+00 :
+ 1.0000000N*V(1,2) + 0.0000000E+00
.ENDS
*
.SUBCKT VCC_OUT 3    4    1   2
*               OUT+ OUT- IN+ IN-
B1 3 4 I= 
+ (V(1,2) < -5.0000000) ? 1.0000000N*V(1,2) + 442.59998M :
+ (V(1,2) < -1.1000000) ? -101.00000M*V(1,2) + -62.399997M :
+ (V(1,2) < -1.0000000) ? -101.00000M*V(1,2) + -62.399997M :
+ (V(1,2) < -899.99996M) ? -101.00000M*V(1,2) + -62.399997M :
+ (V(1,2) < -799.99996M) ? -103.00000M*V(1,2) + -64.199997M :
+ (V(1,2) < -699.99997M) ? -106.49999M*V(1,2) + -66.999997M :
+ (V(1,2) < -599.99997M) ? -57.499997M*V(1,2) + -32.699998M :
+ (V(1,2) < -499.99998M) ? -13.549999M*V(1,2) + -6.3299997M :
+ (V(1,2) < -399.99998M) ? -2.3799999M*V(1,2) + -745.00000U :
+ (V(1,2) < -299.99999M) ? -1.0200000M*V(1,2) + -201.00000U :
+ (V(1,2) < -199.99999M) ? -550.00000U*V(1,2) + -60.000000U :
+ (V(1,2) < -99.999995M) ? -300.00000U*V(1,2) + -10.000000U :
+ (V(1,2) < -9.9999995M) ? -222.22222U*V(1,2) + -2.2222222U :
+ 1.0000000N*V(1,2) + -500.00000P
.ENDS
*
.SUBCKT EPWL_UPX 3    4    1   2
*                OUT+ OUT- IN+ IN-
B1 3 4 V= 
+ (V(1,2) < -5.0000000) ? 1.0000000N*V(1,2) + 90.050001M :
+ (V(1,2) < -4.5000000) ? -2.9599999M*V(1,2) + 75.249996M :
+ (V(1,2) < -4.0000000) ? -2.9599999M*V(1,2) + 75.249996M :
+ (V(1,2) < -3.5000000) ? -3.0799999M*V(1,2) + 74.769996M :
+ (V(1,2) < -3.0000000) ? -6.7399997M*V(1,2) + 61.959997M :
+ (V(1,2) < -2.5000000) ? -12.179999M*V(1,2) + 45.639998M :
+ (V(1,2) < -2.0000000) ? -17.899999M*V(1,2) + 31.339999M :
+ (V(1,2) < -1.5000000) ? -23.879999M*V(1,2) + 19.379999M :
+ (V(1,2) < -1.0000000) ? -30.159999M*V(1,2) + 9.9599995M :
+ (V(1,2) < -499.99998M) ? -36.699998M*V(1,2) + 3.4199998M :
+ (V(1,2) < 0.0000000E+00) ? -43.539998M*V(1,2) + 71.040000P :
+ (V(1,2) < 99.999995M) ? -46.299999M*V(1,2) + 71.040000P :
+ (V(1,2) < 199.99999M) ? -44.999998M*V(1,2) + -130.00000U :
+ (V(1,2) < 299.99999M) ? -43.499998M*V(1,2) + -430.00000U :
+ (V(1,2) < 399.99998M) ? -42.099998M*V(1,2) + -850.00000U :
+ (V(1,2) < 499.99998M) ? -40.799998M*V(1,2) + -1.3699999M :
+ (V(1,2) < 599.99997M) ? -39.399998M*V(1,2) + -2.0699999M :
+ (V(1,2) < 699.99997M) ? -37.999998M*V(1,2) + -2.9099999M :
+ (V(1,2) < 799.99996M) ? -36.699998M*V(1,2) + -3.8199998M :
+ (V(1,2) < 899.99996M) ? -35.299998M*V(1,2) + -4.9399998M :
+ (V(1,2) < 1.0000000) ? -34.099998M*V(1,2) + -6.0199997M :
+ (V(1,2) < 1.1000000) ? -32.699998M*V(1,2) + -7.4199996M :
+ (V(1,2) < 1.2000000) ? -31.399999M*V(1,2) + -8.8499996M :
+ (V(1,2) < 1.3000000) ? -30.199999M*V(1,2) + -10.290000M :
+ (V(1,2) < 1.4000000) ? -28.899999M*V(1,2) + -11.979999M :
+ (V(1,2) < 1.5000000) ? -27.599999M*V(1,2) + -13.799999M :
+ (V(1,2) < 1.6000000) ? -26.299999M*V(1,2) + -15.749999M :
+ (V(1,2) < 1.7000000) ? -25.099999M*V(1,2) + -17.669999M :
+ (V(1,2) < 1.8000000) ? -23.899999M*V(1,2) + -19.709999M :
+ (V(1,2) < 1.9000000) ? -22.599999M*V(1,2) + -22.049999M :
+ (V(1,2) < 2.0000000) ? -21.499999M*V(1,2) + -24.139999M :
+ (V(1,2) < 2.1000000) ? -20.199999M*V(1,2) + -26.739999M :
+ (V(1,2) < 2.2000000) ? -19.099999M*V(1,2) + -29.049999M :
+ (V(1,2) < 2.3000000) ? -17.899999M*V(1,2) + -31.689998M :
+ (V(1,2) < 2.4000000) ? -16.699999M*V(1,2) + -34.449998M :
+ (V(1,2) < 2.5000000) ? -15.599999M*V(1,2) + -37.089998M :
+ (V(1,2) < 2.6000000) ? -14.399999M*V(1,2) + -40.089998M :
+ (V(1,2) < 2.7000000) ? -13.299999M*V(1,2) + -42.949998M :
+ (V(1,2) < 2.8000000) ? -12.199999M*V(1,2) + -45.919998M :
+ (V(1,2) < 2.9000000) ? -11.099999M*V(1,2) + -48.999998M :
+ (V(1,2) < 3.0000000) ? -9.8999995M*V(1,2) + -52.479998M :
+ (V(1,2) < 3.1000000) ? -8.8999996M*V(1,2) + -55.479997M :
+ (V(1,2) < 3.2000000) ? -7.7999996M*V(1,2) + -58.889997M :
+ (V(1,2) < 3.3000000) ? -6.6999997M*V(1,2) + -62.409997M :
+ (V(1,2) < 3.4000000) ? -5.6999997M*V(1,2) + -65.709997M :
+ (V(1,2) < 3.5000000) ? -4.5999998M*V(1,2) + -69.449997M :
+ (V(1,2) < 3.6000000) ? -3.5999998M*V(1,2) + -72.949997M :
+ (V(1,2) < 3.7000000) ? -2.8999999M*V(1,2) + -75.469996M :
+ (V(1,2) < 3.8000000) ? -2.9999999M*V(1,2) + -75.099996M :
+ (V(1,2) < 3.9000000) ? -2.8999999M*V(1,2) + -75.479996M :
+ (V(1,2) < 4.0000000) ? -2.9999999M*V(1,2) + -75.089996M :
+ (V(1,2) < 4.1000000) ? -2.8999999M*V(1,2) + -75.489996M :
+ (V(1,2) < 4.2000000) ? -2.9999999M*V(1,2) + -75.079996M :
+ (V(1,2) < 4.3000000) ? -2.9999999M*V(1,2) + -75.079996M :
+ (V(1,2) < 4.4000000) ? -2.8999999M*V(1,2) + -75.509996M :
+ (V(1,2) < 4.5000000) ? -2.9999999M*V(1,2) + -75.069996M :
+ (V(1,2) < 4.6000000) ? -2.8999999M*V(1,2) + -75.519996M :
+ (V(1,2) < 4.7000000) ? -2.9999999M*V(1,2) + -75.059996M :
+ (V(1,2) < 4.8000000) ? -2.9999999M*V(1,2) + -75.059996M :
+ (V(1,2) < 4.9000000) ? -2.8999999M*V(1,2) + -75.539996M :
+ (V(1,2) < 5.0000000) ? -2.9999999M*V(1,2) + -75.049996M :
+ (V(1,2) < 10.0000000) ? -2.9699999M*V(1,2) + -75.199996M :
+ 1.0000000N*V(1,2) + -104.90001M
.ENDS
*
.SUBCKT EPWL_DNX  3    4    1   2
*                 OUT+ OUT- IN+ IN-
B1 3 4 V= 
+ (V(1,2) < -5.0000000) ? 1.0000000N*V(1,2) + -92.449991M :
+ (V(1,2) < -4.5000000) ? 1.4999999M*V(1,2) + -84.949996M :
+ (V(1,2) < -4.0000000) ? 1.4799999M*V(1,2) + -85.039996M :
+ (V(1,2) < -3.5000000) ? 1.4999999M*V(1,2) + -84.959996M :
+ (V(1,2) < -3.0000000) ? 1.4799999M*V(1,2) + -85.029996M :
+ (V(1,2) < -2.5000000) ? 2.2599999M*V(1,2) + -82.689996M :
+ (V(1,2) < -2.0000000) ? 11.639999M*V(1,2) + -59.239997M :
+ (V(1,2) < -1.5000000) ? 21.699999M*V(1,2) + -39.119998M :
+ (V(1,2) < -1.0000000) ? 33.439998M*V(1,2) + -21.509999M :
+ (V(1,2) < -499.99998M) ? 47.079998M*V(1,2) + -7.8699996M :
+ (V(1,2) < 0.0000000E+00) ? 62.819997M*V(1,2) + -142.07000P :
+ (V(1,2) < 99.999995M) ? 69.699998M*V(1,2) + -142.07000P :
+ (V(1,2) < 199.99999M) ? 66.099997M*V(1,2) + 360.00000U :
+ (V(1,2) < 299.99999M) ? 62.799997M*V(1,2) + 1.0200000M :
+ (V(1,2) < 399.99998M) ? 59.399997M*V(1,2) + 2.0399999M :
+ (V(1,2) < 499.99998M) ? 56.099997M*V(1,2) + 3.3599998M :
+ (V(1,2) < 599.99997M) ? 53.099997M*V(1,2) + 4.8599998M :
+ (V(1,2) < 699.99997M) ? 49.899998M*V(1,2) + 6.7799997M :
+ (V(1,2) < 799.99996M) ? 46.999998M*V(1,2) + 8.8099996M :
+ (V(1,2) < 899.99996M) ? 44.099998M*V(1,2) + 11.129999M :
+ (V(1,2) < 1.0000000) ? 41.299998M*V(1,2) + 13.649999M :
+ (V(1,2) < 1.1000000) ? 38.599998M*V(1,2) + 16.349999M :
+ (V(1,2) < 1.2000000) ? 35.899998M*V(1,2) + 19.319999M :
+ (V(1,2) < 1.3000000) ? 33.399998M*V(1,2) + 22.319999M :
+ (V(1,2) < 1.4000000) ? 30.799999M*V(1,2) + 25.699999M :
+ (V(1,2) < 1.5000000) ? 28.499999M*V(1,2) + 28.919999M :
+ (V(1,2) < 1.6000000) ? 26.099999M*V(1,2) + 32.519998M :
+ (V(1,2) < 1.7000000) ? 23.799999M*V(1,2) + 36.199998M :
+ (V(1,2) < 1.8000000) ? 21.699999M*V(1,2) + 39.769998M :
+ (V(1,2) < 1.9000000) ? 19.499999M*V(1,2) + 43.729998M :
+ (V(1,2) < 2.0000000) ? 17.399999M*V(1,2) + 47.719998M :
+ (V(1,2) < 2.1000000) ? 15.399999M*V(1,2) + 51.719998M :
+ (V(1,2) < 2.2000000) ? 13.499999M*V(1,2) + 55.709997M :
+ (V(1,2) < 2.3000000) ? 11.499999M*V(1,2) + 60.109997M :
+ (V(1,2) < 2.4000000) ? 9.7999995M*V(1,2) + 64.019997M :
+ (V(1,2) < 2.5000000) ? 7.9999996M*V(1,2) + 68.339997M :
+ (V(1,2) < 2.6000000) ? 5.2999997M*V(1,2) + 75.089996M :
+ (V(1,2) < 2.7000000) ? 1.4999999M*V(1,2) + 84.969996M :
+ (V(1,2) < 2.8000000) ? 1.4999999M*V(1,2) + 84.969996M :
+ (V(1,2) < 2.9000000) ? 1.4999999M*V(1,2) + 84.969996M :
+ (V(1,2) < 3.0000000) ? 1.4999999M*V(1,2) + 84.969996M :
+ (V(1,2) < 3.1000000) ? 1.3999999M*V(1,2) + 85.269996M :
+ (V(1,2) < 3.2000000) ? 1.4999999M*V(1,2) + 84.959996M :
+ (V(1,2) < 3.3000000) ? 1.4999999M*V(1,2) + 84.959996M :
+ (V(1,2) < 3.4000000) ? 1.4999999M*V(1,2) + 84.959996M :
+ (V(1,2) < 3.5000000) ? 1.4999999M*V(1,2) + 84.959996M :
+ (V(1,2) < 3.6000000) ? 1.4999999M*V(1,2) + 84.959996M :
+ (V(1,2) < 3.7000000) ? 1.4999999M*V(1,2) + 84.959996M :
+ (V(1,2) < 3.8000000) ? 1.4999999M*V(1,2) + 84.959996M :
+ (V(1,2) < 3.9000000) ? 1.4999999M*V(1,2) + 84.959996M :
+ (V(1,2) < 4.0000000) ? 1.4999999M*V(1,2) + 84.959996M :
+ (V(1,2) < 4.1000000) ? 1.4999999M*V(1,2) + 84.959996M :
+ (V(1,2) < 4.2000000) ? 1.4999999M*V(1,2) + 84.959996M :
+ (V(1,2) < 4.3000000) ? 1.4999999M*V(1,2) + 84.959996M :
+ (V(1,2) < 4.4000000) ? 1.3999999M*V(1,2) + 85.389996M :
+ (V(1,2) < 4.5000000) ? 1.4999999M*V(1,2) + 84.949996M :
+ (V(1,2) < 4.6000000) ? 1.4999999M*V(1,2) + 84.949996M :
+ (V(1,2) < 4.7000000) ? 1.4999999M*V(1,2) + 84.949996M :
+ (V(1,2) < 4.8000000) ? 1.4999999M*V(1,2) + 84.949996M :
+ (V(1,2) < 4.9000000) ? 1.4999999M*V(1,2) + 84.949996M :
+ (V(1,2) < 5.0000000) ? 1.4999999M*V(1,2) + 84.949996M :
+ (V(1,2) < 10.0000000) ? 1.4959999M*V(1,2) + 84.969996M :
+ 1.0000000N*V(1,2) + 99.929985M
.ENDS
***********
*SYM=IBISO
.SUBCKT PCEBBCOX 100   4      300 400 500
*Connections         Input Output VCC VEE Enable
*DEFINE {RTF}=45000.0
*DEFINE {RTR}=46000.0
* Input Control
B1 820 0 V=V(100) & V(500)
B2 830 0 V= V(500) & ~V(100)
* Up and Down Ramps
B3 300 850 I= V(830) > 1.2   ? 0 : V(300,850) / {RTR}
B4 840 400 I= V(820) > 1.2 ? 0 : V(840,400) / {RTF}
C1 300 850 .01P
C2 840 400 .01P
S1 220 850 0 820 SMOD
S2 840 220 0 830 SMOD
.MODEL SMOD SW RON=.1M ROFF=1E15 VT=-1.2 VH=.1
G1 8 400 2 8 1
R1 6 400 1
G2 300 8 8 3 1
R2 300 6 1
* Pull-up/Pull-down structures; Typ
XEPL_DN 2 400 8 840 EPWL_DNX
XEPL_UP 3 300 850 8 EPWL_UPX
* Diode Clamps
XVCC_OUT 6 300 300 6 VCC_OUT
XGND_OUT 6 400 6 400 GND_OUT
* Package Parasitics; Typ
ROSNB 5 1 100
ROPKG 1 4 .038
*ROPKG 1 4 .252
COPKG 4 400 1.28P
CCOMP 5 400 2.3P
LOPKG 5 1 29.75N
* Voltage Sources for measuring currents
V5 6 5 
V6 8 6 
V7 220 8 
.ENDS
*Subcircuits for the IBIS1 Topology
.SUBCKT GND_OUT  3    4    1   2
*                OUT+ OUT- IN+ IN-
B1 3 4 I= 
+ (V(1,2) < -5.0000000) ? 1.0000000N*V(1,2) + -1.1500000 :
+ (V(1,2) < -1.1000000) ? 269.61537M*V(1,2) + 198.07691M :
+ (V(1,2) < -1.0000000) ? 269.99999M*V(1,2) + 198.49999M :
+ (V(1,2) < -899.99996M) ? 254.99999M*V(1,2) + 183.49999M :
+ (V(1,2) < -799.99996M) ? 219.99999M*V(1,2) + 151.99999M :
+ (V(1,2) < -699.99997M) ? 150.99999M*V(1,2) + 96.799995M :
+ (V(1,2) < -599.99997M) ? 56.999997M*V(1,2) + 30.999999M :
+ (V(1,2) < -499.99998M) ? 19.799999M*V(1,2) + 8.6799996M :
+ (V(1,2) < -399.99998M) ? 7.8999996M*V(1,2) + 2.7299999M :
+ (V(1,2) < -299.99999M) ? 2.3499999M*V(1,2) + 510.00000U :
+ (V(1,2) < -199.99999M) ? 1.0000000M*V(1,2) + 105.00000U :
+ (V(1,2) < -99.999995M) ? 600.00000U*V(1,2) + 25.000000U :
+ (V(1,2) < 0.0000000E+00) ? 350.00000U*V(1,2) + 0.0000000E+00 :
+ 1.0000000N*V(1,2) + 0.0000000E+00
.ENDS
*
.SUBCKT VCC_OUT 3    4    1   2
*               OUT+ OUT- IN+ IN-
B1 3 4 I= 
+ (V(1,2) < -5.0000000) ? 1.0000000N*V(1,2) + 442.59998M :
+ (V(1,2) < -1.1000000) ? -101.00000M*V(1,2) + -62.399997M :
+ (V(1,2) < -1.0000000) ? -101.00000M*V(1,2) + -62.399997M :
+ (V(1,2) < -899.99996M) ? -101.00000M*V(1,2) + -62.399997M :
+ (V(1,2) < -799.99996M) ? -103.00000M*V(1,2) + -64.199997M :
+ (V(1,2) < -699.99997M) ? -106.49999M*V(1,2) + -66.999997M :
+ (V(1,2) < -599.99997M) ? -57.499997M*V(1,2) + -32.699998M :
+ (V(1,2) < -499.99998M) ? -13.549999M*V(1,2) + -6.3299997M :
+ (V(1,2) < -399.99998M) ? -2.3799999M*V(1,2) + -745.00000U :
+ (V(1,2) < -299.99999M) ? -1.0200000M*V(1,2) + -201.00000U :
+ (V(1,2) < -199.99999M) ? -550.00000U*V(1,2) + -60.000000U :
+ (V(1,2) < -99.999995M) ? -300.00000U*V(1,2) + -10.000000U :
+ (V(1,2) < -9.9999995M) ? -222.22222U*V(1,2) + -2.2222222U :
+ 1.0000000N*V(1,2) + -500.00000P
.ENDS
*
.SUBCKT EPWL_UPX 3    4    1   2
*                OUT+ OUT- IN+ IN-
B1 3 4 V= 
+ (V(1,2) < -5.0000000) ? 1.0000000N*V(1,2) + 90.050001M :
+ (V(1,2) < -4.5000000) ? -2.9599999M*V(1,2) + 75.249996M :
+ (V(1,2) < -4.0000000) ? -2.9599999M*V(1,2) + 75.249996M :
+ (V(1,2) < -3.5000000) ? -3.0799999M*V(1,2) + 74.769996M :
+ (V(1,2) < -3.0000000) ? -6.7399997M*V(1,2) + 61.959997M :
+ (V(1,2) < -2.5000000) ? -12.179999M*V(1,2) + 45.639998M :
+ (V(1,2) < -2.0000000) ? -17.899999M*V(1,2) + 31.339999M :
+ (V(1,2) < -1.5000000) ? -23.879999M*V(1,2) + 19.379999M :
+ (V(1,2) < -1.0000000) ? -30.159999M*V(1,2) + 9.9599995M :
+ (V(1,2) < -499.99998M) ? -36.699998M*V(1,2) + 3.4199998M :
+ (V(1,2) < 0.0000000E+00) ? -43.539998M*V(1,2) + 71.040000P :
+ (V(1,2) < 99.999995M) ? -46.299999M*V(1,2) + 71.040000P :
+ (V(1,2) < 199.99999M) ? -44.999998M*V(1,2) + -130.00000U :
+ (V(1,2) < 299.99999M) ? -43.499998M*V(1,2) + -430.00000U :
+ (V(1,2) < 399.99998M) ? -42.099998M*V(1,2) + -850.00000U :
+ (V(1,2) < 499.99998M) ? -40.799998M*V(1,2) + -1.3699999M :
+ (V(1,2) < 599.99997M) ? -39.399998M*V(1,2) + -2.0699999M :
+ (V(1,2) < 699.99997M) ? -37.999998M*V(1,2) + -2.9099999M :
+ (V(1,2) < 799.99996M) ? -36.699998M*V(1,2) + -3.8199998M :
+ (V(1,2) < 899.99996M) ? -35.299998M*V(1,2) + -4.9399998M :
+ (V(1,2) < 1.0000000) ? -34.099998M*V(1,2) + -6.0199997M :
+ (V(1,2) < 1.1000000) ? -32.699998M*V(1,2) + -7.4199996M :
+ (V(1,2) < 1.2000000) ? -31.399999M*V(1,2) + -8.8499996M :
+ (V(1,2) < 1.3000000) ? -30.199999M*V(1,2) + -10.290000M :
+ (V(1,2) < 1.4000000) ? -28.899999M*V(1,2) + -11.979999M :
+ (V(1,2) < 1.5000000) ? -27.599999M*V(1,2) + -13.799999M :
+ (V(1,2) < 1.6000000) ? -26.299999M*V(1,2) + -15.749999M :
+ (V(1,2) < 1.7000000) ? -25.099999M*V(1,2) + -17.669999M :
+ (V(1,2) < 1.8000000) ? -23.899999M*V(1,2) + -19.709999M :
+ (V(1,2) < 1.9000000) ? -22.599999M*V(1,2) + -22.049999M :
+ (V(1,2) < 2.0000000) ? -21.499999M*V(1,2) + -24.139999M :
+ (V(1,2) < 2.1000000) ? -20.199999M*V(1,2) + -26.739999M :
+ (V(1,2) < 2.2000000) ? -19.099999M*V(1,2) + -29.049999M :
+ (V(1,2) < 2.3000000) ? -17.899999M*V(1,2) + -31.689998M :
+ (V(1,2) < 2.4000000) ? -16.699999M*V(1,2) + -34.449998M :
+ (V(1,2) < 2.5000000) ? -15.599999M*V(1,2) + -37.089998M :
+ (V(1,2) < 2.6000000) ? -14.399999M*V(1,2) + -40.089998M :
+ (V(1,2) < 2.7000000) ? -13.299999M*V(1,2) + -42.949998M :
+ (V(1,2) < 2.8000000) ? -12.199999M*V(1,2) + -45.919998M :
+ (V(1,2) < 2.9000000) ? -11.099999M*V(1,2) + -48.999998M :
+ (V(1,2) < 3.0000000) ? -9.8999995M*V(1,2) + -52.479998M :
+ (V(1,2) < 3.1000000) ? -8.8999996M*V(1,2) + -55.479997M :
+ (V(1,2) < 3.2000000) ? -7.7999996M*V(1,2) + -58.889997M :
+ (V(1,2) < 3.3000000) ? -6.6999997M*V(1,2) + -62.409997M :
+ (V(1,2) < 3.4000000) ? -5.6999997M*V(1,2) + -65.709997M :
+ (V(1,2) < 3.5000000) ? -4.5999998M*V(1,2) + -69.449997M :
+ (V(1,2) < 3.6000000) ? -3.5999998M*V(1,2) + -72.949997M :
+ (V(1,2) < 3.7000000) ? -2.8999999M*V(1,2) + -75.469996M :
+ (V(1,2) < 3.8000000) ? -2.9999999M*V(1,2) + -75.099996M :
+ (V(1,2) < 3.9000000) ? -2.8999999M*V(1,2) + -75.479996M :
+ (V(1,2) < 4.0000000) ? -2.9999999M*V(1,2) + -75.089996M :
+ (V(1,2) < 4.1000000) ? -2.8999999M*V(1,2) + -75.489996M :
+ (V(1,2) < 4.2000000) ? -2.9999999M*V(1,2) + -75.079996M :
+ (V(1,2) < 4.3000000) ? -2.9999999M*V(1,2) + -75.079996M :
+ (V(1,2) < 4.4000000) ? -2.8999999M*V(1,2) + -75.509996M :
+ (V(1,2) < 4.5000000) ? -2.9999999M*V(1,2) + -75.069996M :
+ (V(1,2) < 4.6000000) ? -2.8999999M*V(1,2) + -75.519996M :
+ (V(1,2) < 4.7000000) ? -2.9999999M*V(1,2) + -75.059996M :
+ (V(1,2) < 4.8000000) ? -2.9999999M*V(1,2) + -75.059996M :
+ (V(1,2) < 4.9000000) ? -2.8999999M*V(1,2) + -75.539996M :
+ (V(1,2) < 5.0000000) ? -2.9999999M*V(1,2) + -75.049996M :
+ (V(1,2) < 10.0000000) ? -2.9699999M*V(1,2) + -75.199996M :
+ 1.0000000N*V(1,2) + -104.90001M
.ENDS
*
.SUBCKT EPWL_DNX  3    4    1   2
*                 OUT+ OUT- IN+ IN-
B1 3 4 V= 
+ (V(1,2) < -5.0000000) ? 1.0000000N*V(1,2) + -92.449991M :
+ (V(1,2) < -4.5000000) ? 1.4999999M*V(1,2) + -84.949996M :
+ (V(1,2) < -4.0000000) ? 1.4799999M*V(1,2) + -85.039996M :
+ (V(1,2) < -3.5000000) ? 1.4999999M*V(1,2) + -84.959996M :
+ (V(1,2) < -3.0000000) ? 1.4799999M*V(1,2) + -85.029996M :
+ (V(1,2) < -2.5000000) ? 2.2599999M*V(1,2) + -82.689996M :
+ (V(1,2) < -2.0000000) ? 11.639999M*V(1,2) + -59.239997M :
+ (V(1,2) < -1.5000000) ? 21.699999M*V(1,2) + -39.119998M :
+ (V(1,2) < -1.0000000) ? 33.439998M*V(1,2) + -21.509999M :
+ (V(1,2) < -499.99998M) ? 47.079998M*V(1,2) + -7.8699996M :
+ (V(1,2) < 0.0000000E+00) ? 62.819997M*V(1,2) + -142.07000P :
+ (V(1,2) < 99.999995M) ? 69.699998M*V(1,2) + -142.07000P :
+ (V(1,2) < 199.99999M) ? 66.099997M*V(1,2) + 360.00000U :
+ (V(1,2) < 299.99999M) ? 62.799997M*V(1,2) + 1.0200000M :
+ (V(1,2) < 399.99998M) ? 59.399997M*V(1,2) + 2.0399999M :
+ (V(1,2) < 499.99998M) ? 56.099997M*V(1,2) + 3.3599998M :
+ (V(1,2) < 599.99997M) ? 53.099997M*V(1,2) + 4.8599998M :
+ (V(1,2) < 699.99997M) ? 49.899998M*V(1,2) + 6.7799997M :
+ (V(1,2) < 799.99996M) ? 46.999998M*V(1,2) + 8.8099996M :
+ (V(1,2) < 899.99996M) ? 44.099998M*V(1,2) + 11.129999M :
+ (V(1,2) < 1.0000000) ? 41.299998M*V(1,2) + 13.649999M :
+ (V(1,2) < 1.1000000) ? 38.599998M*V(1,2) + 16.349999M :
+ (V(1,2) < 1.2000000) ? 35.899998M*V(1,2) + 19.319999M :
+ (V(1,2) < 1.3000000) ? 33.399998M*V(1,2) + 22.319999M :
+ (V(1,2) < 1.4000000) ? 30.799999M*V(1,2) + 25.699999M :
+ (V(1,2) < 1.5000000) ? 28.499999M*V(1,2) + 28.919999M :
+ (V(1,2) < 1.6000000) ? 26.099999M*V(1,2) + 32.519998M :
+ (V(1,2) < 1.7000000) ? 23.799999M*V(1,2) + 36.199998M :
+ (V(1,2) < 1.8000000) ? 21.699999M*V(1,2) + 39.769998M :
+ (V(1,2) < 1.9000000) ? 19.499999M*V(1,2) + 43.729998M :
+ (V(1,2) < 2.0000000) ? 17.399999M*V(1,2) + 47.719998M :
+ (V(1,2) < 2.1000000) ? 15.399999M*V(1,2) + 51.719998M :
+ (V(1,2) < 2.2000000) ? 13.499999M*V(1,2) + 55.709997M :
+ (V(1,2) < 2.3000000) ? 11.499999M*V(1,2) + 60.109997M :
+ (V(1,2) < 2.4000000) ? 9.7999995M*V(1,2) + 64.019997M :
+ (V(1,2) < 2.5000000) ? 7.9999996M*V(1,2) + 68.339997M :
+ (V(1,2) < 2.6000000) ? 5.2999997M*V(1,2) + 75.089996M :
+ (V(1,2) < 2.7000000) ? 1.4999999M*V(1,2) + 84.969996M :
+ (V(1,2) < 2.8000000) ? 1.4999999M*V(1,2) + 84.969996M :
+ (V(1,2) < 2.9000000) ? 1.4999999M*V(1,2) + 84.969996M :
+ (V(1,2) < 3.0000000) ? 1.4999999M*V(1,2) + 84.969996M :
+ (V(1,2) < 3.1000000) ? 1.3999999M*V(1,2) + 85.269996M :
+ (V(1,2) < 3.2000000) ? 1.4999999M*V(1,2) + 84.959996M :
+ (V(1,2) < 3.3000000) ? 1.4999999M*V(1,2) + 84.959996M :
+ (V(1,2) < 3.4000000) ? 1.4999999M*V(1,2) + 84.959996M :
+ (V(1,2) < 3.5000000) ? 1.4999999M*V(1,2) + 84.959996M :
+ (V(1,2) < 3.6000000) ? 1.4999999M*V(1,2) + 84.959996M :
+ (V(1,2) < 3.7000000) ? 1.4999999M*V(1,2) + 84.959996M :
+ (V(1,2) < 3.8000000) ? 1.4999999M*V(1,2) + 84.959996M :
+ (V(1,2) < 3.9000000) ? 1.4999999M*V(1,2) + 84.959996M :
+ (V(1,2) < 4.0000000) ? 1.4999999M*V(1,2) + 84.959996M :
+ (V(1,2) < 4.1000000) ? 1.4999999M*V(1,2) + 84.959996M :
+ (V(1,2) < 4.2000000) ? 1.4999999M*V(1,2) + 84.959996M :
+ (V(1,2) < 4.3000000) ? 1.4999999M*V(1,2) + 84.959996M :
+ (V(1,2) < 4.4000000) ? 1.3999999M*V(1,2) + 85.389996M :
+ (V(1,2) < 4.5000000) ? 1.4999999M*V(1,2) + 84.949996M :
+ (V(1,2) < 4.6000000) ? 1.4999999M*V(1,2) + 84.949996M :
+ (V(1,2) < 4.7000000) ? 1.4999999M*V(1,2) + 84.949996M :
+ (V(1,2) < 4.8000000) ? 1.4999999M*V(1,2) + 84.949996M :
+ (V(1,2) < 4.9000000) ? 1.4999999M*V(1,2) + 84.949996M :
+ (V(1,2) < 5.0000000) ? 1.4999999M*V(1,2) + 84.949996M :
+ (V(1,2) < 10.0000000) ? 1.4959999M*V(1,2) + 84.969996M :
+ 1.0000000N*V(1,2) + 99.929985M
.ENDS
***********
*SRC=PCEBBCO;PCEBBCO;CMOS;IBIS(O Only);82375SB Pin3 SPICE3
*SYM=IBISO
.SUBCKT PCEBBCO 100   4      300 400 500
*Connections         Input Output VCC VEE Enable
*82375SB
*Pin type signal_name model_name spice_name spice_version
*3    I/O   LA31      PCEBB12211A0S2AZZZZC  PCEBBCO/PCEBBI 3
*Passed Parameters; Typical
*DEFINE {RTF}=45210.72797  ; 2.61V/1.18ns
*DEFINE {RTR}=46351.79487  ; 1.95V/903.86ps
* Input Control
B1 820 0 V=V(100) & V(500)
B2 830 0 V= V(500) & ~V(100)
* Up and Down Ramps
B3 300 850 I= V(830) > 1.2   ? 0 : V(300,850) / {RTR}
B4 840 400 I= V(820) > 1.2 ? 0 : V(840,400) / {RTF}
C1 300 850 .01P
C2 840 400 .01P
S1 220 850 0 820 SMOD
S2 840 220 0 830 SMOD
.MODEL SMOD SW RON=.1M ROFF=1E15 VT=-1.2 VH=.1
G1 8 400 2 8 1
R1 6 400 1
G2 300 8 8 3 1
R2 300 6 1
* Pull-up/Pull-down structures; Typ
XEPL_DN 2 400 8 840 EPWL_DNX
XEPL_UP 3 300 850 8 EPWL_UPX
* Diode Clamps
XVCC_OUT 6 300 300 6 VCC_OUT
XGND_OUT 6 400 6 400 GND_OUT
* Package Parasitics; Typ
ROSNB 5 1 100
ROPKG 1 4  .252
COPKG 4 400 1.28P
CCOMP 5 400 2.3P
LOPKG 5 1 29.75N
* Voltage Sources for measuring currents
V5 6 5 
V6 8 6 
V7 220 8 
.ENDS
*Subcircuits for the IBIS1 Topology
.SUBCKT GND_OUT  3    4    1   2
*                OUT+ OUT- IN+ IN-
B1 3 4 I= 
+ (V(1,2) < -5.0000000) ? 1.0000000N*V(1,2) + -81.600000 :
+ (V(1,2) < -4.8000000) ? 19.850000*V(1,2) + 17.650000 :
+ (V(1,2) < -4.6000000) ? 19.850000*V(1,2) + 17.650000 :
+ (V(1,2) < -4.4000000) ? 19.850000*V(1,2) + 17.650000 :
+ (V(1,2) < -4.2000000) ? 19.850000*V(1,2) + 17.650000 :
+ (V(1,2) < -4.0000000) ? 19.800000*V(1,2) + 17.440000 :
+ (V(1,2) < -3.8000000) ? 19.800000*V(1,2) + 17.440000 :
+ (V(1,2) < -3.6000000) ? 19.850000*V(1,2) + 17.630000 :
+ (V(1,2) < -3.4000000) ? 19.750000*V(1,2) + 17.270000 :
+ (V(1,2) < -3.2000000) ? 19.800000*V(1,2) + 17.440000 :
+ (V(1,2) < -3.0000000) ? 19.750000*V(1,2) + 17.280000 :
+ (V(1,2) < -2.8000000) ? 19.700000*V(1,2) + 17.130000 :
+ (V(1,2) < -2.6000000) ? 19.700000*V(1,2) + 17.130000 :
+ (V(1,2) < -2.4000000) ? 19.650000*V(1,2) + 17.000000 :
+ (V(1,2) < -2.2000000) ? 19.600000*V(1,2) + 16.880000 :
+ (V(1,2) < -2.0000000) ? 19.550000*V(1,2) + 16.770000 :
+ (V(1,2) < -1.9500000) ? 19.600000*V(1,2) + 16.870000 :
+ (V(1,2) < -1.9000000) ? 19.400000*V(1,2) + 16.480000 :
+ (V(1,2) < -1.8500000) ? 19.600000*V(1,2) + 16.860000 :
+ (V(1,2) < -1.8000000) ? 19.400000*V(1,2) + 16.490000 :
+ (V(1,2) < -1.7500000) ? 19.400000*V(1,2) + 16.490000 :
+ (V(1,2) < -1.7000000) ? 19.400000*V(1,2) + 16.490000 :
+ (V(1,2) < -1.6500000) ? 19.200000*V(1,2) + 16.150000 :
+ (V(1,2) < -1.6000000) ? 19.400000*V(1,2) + 16.480000 :
+ (V(1,2) < -1.5500000) ? 19.200000*V(1,2) + 16.160000 :
+ (V(1,2) < -1.5000000) ? 19.200000*V(1,2) + 16.160000 :
+ (V(1,2) < -1.4500000) ? 19.000000*V(1,2) + 15.860000 :
+ (V(1,2) < -1.4000000) ? 19.200000*V(1,2) + 16.150000 :
+ (V(1,2) < -1.3500000) ? 18.800000*V(1,2) + 15.590000 :
+ (V(1,2) < -1.3000000) ? 19.000000*V(1,2) + 15.860000 :
+ (V(1,2) < -1.2500000) ? 18.600000*V(1,2) + 15.340000 :
+ (V(1,2) < -1.2000000) ? 18.800000*V(1,2) + 15.590000 :
+ (V(1,2) < -1.1500000) ? 18.200000*V(1,2) + 14.870000 :
+ (V(1,2) < -1.1000000) ? 18.400000*V(1,2) + 15.100000 :
+ (V(1,2) < -1.0500000) ? 17.600000*V(1,2) + 14.220000 :
+ (V(1,2) < -1.0000000) ? 17.600000*V(1,2) + 14.220000 :
+ (V(1,2) < -949.99995M) ? 16.400000*V(1,2) + 13.020000 :
+ (V(1,2) < -899.99996M) ? 16.400000*V(1,2) + 13.020000 :
+ (V(1,2) < -849.99996M) ? 12.600000*V(1,2) + 9.6000000 :
+ (V(1,2) < -799.99996M) ? 12.750200*V(1,2) + 9.7276700 :
+ (V(1,2) < -749.99996M) ? 4.4356000*V(1,2) + 3.0759900 :
+ (V(1,2) < -699.99997M) ? 4.4358000*V(1,2) + 3.0761400 :
+ (V(1,2) < -649.99997M) ? 280.79999M*V(1,2) + 167.63999M :
+ (V(1,2) < -599.99997M) ? 280.72899M*V(1,2) + 167.59384M :
+ (V(1,2) < -549.99997M) ? 8.1961996M*V(1,2) + 4.0741698M :
+ (V(1,2) < -499.99998M) ? 8.1963996M*V(1,2) + 4.0742798M :
+ (V(1,2) < -449.99998M) ? 232.00000U*V(1,2) + 92.080000U :
+ (V(1,2) < -399.99998M) ? 231.87160U*V(1,2) + 92.022220U :
+ (V(1,2) < -349.99998M) ? 7.0042002U*V(1,2) + 2.0752600U :
+ (V(1,2) < -299.99999M) ? 7.0042002U*V(1,2) + 2.0752600U :
+ (V(1,2) < -249.99999M) ? 249.00001N*V(1,2) + 48.700002N :
+ (V(1,2) < -199.99999M) ? 248.80001N*V(1,2) + 48.650002N :
+ (V(1,2) < -149.99999M) ? 11.609201N*V(1,2) + 1.2118401N :
+ (V(1,2) < -99.999995M) ? 11.526400N*V(1,2) + 1.1994200N :
+ (V(1,2) < -49.999998M) ? 188.00000P*V(1,2) + 65.580000P :
+ (V(1,2) < 0.0000000E+00) ? -1.1236000N*V(1,2) + 3.1554436E-30 :
+ 1.0000000N*V(1,2) + 0.0000000E+00
.ENDS
*
.SUBCKT VCC_OUT 3    4    1   2
*               OUT+ OUT- IN+ IN-
B1 3 4 I= 
+ (V(1,2) < -5.0000000) ? 1.0000000N*V(1,2) + 24.200000 :
+ (V(1,2) < -4.8000000) ? -5.8500000*V(1,2) + -5.0500000 :
+ (V(1,2) < -4.6000000) ? -5.8500000*V(1,2) + -5.0500000 :
+ (V(1,2) < -4.4000000) ? -5.8000000*V(1,2) + -4.8200000 :
+ (V(1,2) < -4.2000000) ? -5.8500000*V(1,2) + -5.0400000 :
+ (V(1,2) < -4.0000000) ? -5.8500000*V(1,2) + -5.0400000 :
+ (V(1,2) < -3.8000000) ? -5.8000000*V(1,2) + -4.8400000 :
+ (V(1,2) < -3.6000000) ? -5.8500000*V(1,2) + -5.0300000 :
+ (V(1,2) < -3.4000000) ? -5.8000000*V(1,2) + -4.8500000 :
+ (V(1,2) < -3.2000000) ? -5.8500000*V(1,2) + -5.0200000 :
+ (V(1,2) < -3.0000000) ? -5.8000000*V(1,2) + -4.8600000 :
+ (V(1,2) < -2.8000000) ? -5.8000000*V(1,2) + -4.8600000 :
+ (V(1,2) < -2.6000000) ? -5.8000000*V(1,2) + -4.8600000 :
+ (V(1,2) < -2.4000000) ? -5.7500000*V(1,2) + -4.7300000 :
+ (V(1,2) < -2.2000000) ? -5.8000000*V(1,2) + -4.8500000 :
+ (V(1,2) < -2.0000000) ? -5.7500000*V(1,2) + -4.7400000 :
+ (V(1,2) < -1.9500000) ? -5.8000000*V(1,2) + -4.8400000 :
+ (V(1,2) < -1.9000000) ? -5.6000000*V(1,2) + -4.4500000 :
+ (V(1,2) < -1.8500000) ? -5.8000000*V(1,2) + -4.8300000 :
+ (V(1,2) < -1.8000000) ? -5.6000000*V(1,2) + -4.4600000 :
+ (V(1,2) < -1.7500000) ? -5.8000000*V(1,2) + -4.8200000 :
+ (V(1,2) < -1.7000000) ? -5.6000000*V(1,2) + -4.4700000 :
+ (V(1,2) < -1.6500000) ? -5.8000000*V(1,2) + -4.8100000 :
+ (V(1,2) < -1.6000000) ? -5.6000000*V(1,2) + -4.4800000 :
+ (V(1,2) < -1.5500000) ? -5.8000000*V(1,2) + -4.8000000 :
+ (V(1,2) < -1.5000000) ? -5.6000000*V(1,2) + -4.4900000 :
+ (V(1,2) < -1.4500000) ? -5.6000000*V(1,2) + -4.4900000 :
+ (V(1,2) < -1.4000000) ? -5.6000000*V(1,2) + -4.4900000 :
+ (V(1,2) < -1.3500000) ? -5.6000000*V(1,2) + -4.4900000 :
+ (V(1,2) < -1.3000000) ? -5.6000000*V(1,2) + -4.4900000 :
+ (V(1,2) < -1.2500000) ? -5.6000000*V(1,2) + -4.4900000 :
+ (V(1,2) < -1.2000000) ? -5.4000000*V(1,2) + -4.2400000 :
+ (V(1,2) < -1.1500000) ? -5.4000000*V(1,2) + -4.2400000 :
+ (V(1,2) < -1.1000000) ? -5.6000000*V(1,2) + -4.4700000 :
+ (V(1,2) < -1.0500000) ? -5.2000000*V(1,2) + -4.0300000 :
+ (V(1,2) < -1.0000000) ? -5.2000000*V(1,2) + -4.0300000 :
+ (V(1,2) < -949.99995M) ? -5.0282000*V(1,2) + -3.8582000 :
+ (V(1,2) < -899.99996M) ? -4.9730000*V(1,2) + -3.8057600 :
+ (V(1,2) < -849.99996M) ? -4.2404000*V(1,2) + -3.1464200 :
+ (V(1,2) < -799.99996M) ? -4.2406000*V(1,2) + -3.1465900 :
+ (V(1,2) < -749.99996M) ? -2.1992000*V(1,2) + -1.5134700 :
+ (V(1,2) < -699.99997M) ? -2.1994000*V(1,2) + -1.5136200 :
+ (V(1,2) < -649.99997M) ? -251.19999M*V(1,2) + -149.87999M :
+ (V(1,2) < -599.99997M) ? -251.31559M*V(1,2) + -149.95513M :
+ (V(1,2) < -549.99997M) ? -8.1109996M*V(1,2) + -4.0323798M :
+ (V(1,2) < -499.99998M) ? -8.1111996M*V(1,2) + -4.0324898M :
+ (V(1,2) < -449.99998M) ? -224.60000U*V(1,2) + -89.190000U :
+ (V(1,2) < -399.99998M) ? -224.85500U*V(1,2) + -89.304750U :