**********
* Copyright Intusoft 1993-1997
* All Rights Reserved
**********
***********
*82437fx
Pin	type	signal_name	model_name	spice_name	spice_version
*xx	O	xx		TSC_B06120A1A2AZZRLF	TSCB06OB	3
*xx	O	xx		TSC_B06120A1A2AZZRLF	TSCB06OW	3
*xx	I	xx		TSC_B06120A1A2AZZRLF	TSCB06IB	3
*xx	I	xx		TSC_B06120A1A2AZZRLF	TSCB06IW	3
*82371fb
Pin	type	signal_name	model_name	spice_name	spice_version
*xx	O	xx		PIIXB06120A1A2AZZRLF 	PIIXB06OB	3
*xx	O	xx		PIIXB06120A1A2AZZRLF 	PIIXB06OW	3
*xx	I	xx		PIIXB06120A1A2AZZRLF 	PIIXB06IB	3
*xx	I	xx		PIIXB06120A1A2AZZRLF 	PIIXB06IW	3
***********
.SUBCKT TSCB06IW 4     300 400
*Connections    Input VCC VEE
*Pin type signal_name model_name spice_name spice_version
*82473fx
*xx	I	xx		TSC_B06120A1A2AZZRLF	TSCB06IB	3
*Best Case Model    - Max Currents, Min Rise/Fall, Min Package
*Worst Case Model - Min Currents, Max Rise/Fall, Max Package
* Diode Clamps
XVCC_OUT 6 300 300 6 VCC_OUT6IW
XGND_OUT 6 400 6 400 GND_OUT6IW
V5 6 5 
* Package Parasitics Max
ROSNB 5 1 100
ROPKG 1 4 .277
COPKG 4 400 1.36P
CCOMP 5 400 7.64P
LOPKG 5 1 11.80N
*Current Min
.ENDS
.SUBCKT GND_OUT6IW  3    4    1   2
*                OUT+ OUT- IN+ IN-
B1G6IW 3 4 I= 
+ (V(1,2) < -5.0000000) ? 1.0000000N*V(1,2) + -1.3800000 :
+ (V(1,2) < -4.9500000) ? 399.99998M*V(1,2) + 619.99997M :
+ (V(1,2) < -4.9000000) ? 399.99998M*V(1,2) + 619.99997M :
+ (V(1,2) < -4.8500000) ? 199.99999M*V(1,2) + -359.99998M :
+ (V(1,2) < -4.8000000) ? 399.99998M*V(1,2) + 609.99997M :
+ (V(1,2) < -4.7500000) ? 199.99999M*V(1,2) + -349.99998M :
+ (V(1,2) < -4.7000000) ? 399.99998M*V(1,2) + 599.99997M :
+ (V(1,2) < -4.6500000) ? 399.99998M*V(1,2) + 599.99997M :
+ (V(1,2) < -4.6000000) ? 199.99999M*V(1,2) + -329.99998M :
+ (V(1,2) < -4.5500000) ? 399.99998M*V(1,2) + 589.99997M :
+ (V(1,2) < -4.5000000) ? 199.99999M*V(1,2) + -319.99998M :
+ (V(1,2) < -4.4500000) ? 399.99998M*V(1,2) + 579.99997M :
+ (V(1,2) < -4.4000000) ? 399.99998M*V(1,2) + 579.99997M :
+ (V(1,2) < -4.3500000) ? 199.99999M*V(1,2) + -299.99999M :
+ (V(1,2) < -4.3000000) ? 399.99998M*V(1,2) + 569.99997M :
+ (V(1,2) < -4.2500000) ? 199.99999M*V(1,2) + -289.99999M :
+ (V(1,2) < -4.2000000) ? 399.99998M*V(1,2) + 559.99997M :
+ (V(1,2) < -4.1500000) ? 199.99999M*V(1,2) + -279.99999M :
+ (V(1,2) < -4.1000000) ? 399.99998M*V(1,2) + 549.99997M :
+ (V(1,2) < -4.0500000) ? 399.99998M*V(1,2) + 549.99997M :
+ (V(1,2) < -4.0000000) ? 199.99999M*V(1,2) + -259.99999M :
+ (V(1,2) < -3.9500000) ? 399.99998M*V(1,2) + 539.99997M :
+ (V(1,2) < -3.9000000) ? 199.99999M*V(1,2) + -249.99999M :
+ (V(1,2) < -3.8500000) ? 399.99998M*V(1,2) + 529.99997M :
+ (V(1,2) < -3.8000000) ? 312.19999M*V(1,2) + 191.96999M :
+ (V(1,2) < -3.7500000) ? 317.19998M*V(1,2) + 210.96999M :
+ (V(1,2) < -3.7000000) ? 316.99998M*V(1,2) + 210.21999M :
+ (V(1,2) < -3.6500000) ? 316.99998M*V(1,2) + 210.21999M :
+ (V(1,2) < -3.6000000) ? 316.79998M*V(1,2) + 209.48999M :
+ (V(1,2) < -3.5500000) ? 316.79998M*V(1,2) + 209.48999M :
+ (V(1,2) < -3.5000000) ? 316.59998M*V(1,2) + 208.77999M :
+ (V(1,2) < -3.4500000) ? 316.59998M*V(1,2) + 208.77999M :
+ (V(1,2) < -3.4000000) ? 316.39998M*V(1,2) + 208.08999M :
+ (V(1,2) < -3.3500000) ? 316.39998M*V(1,2) + 208.08999M :
+ (V(1,2) < -3.3000000) ? 316.19998M*V(1,2) + 207.41999M :
+ (V(1,2) < -3.2500000) ? 315.99998M*V(1,2) + 206.75999M :
+ (V(1,2) < -3.2000000) ? 315.99998M*V(1,2) + 206.75999M :
+ (V(1,2) < -3.1500000) ? 315.79999M*V(1,2) + 206.11999M :
+ (V(1,2) < -3.1000000) ? 315.79999M*V(1,2) + 206.11999M :
+ (V(1,2) < -3.0500000) ? 315.59999M*V(1,2) + 205.49999M :
+ (V(1,2) < -3.0000000) ? 315.39999M*V(1,2) + 204.88999M :
+ (V(1,2) < -2.9500000) ? 315.19999M*V(1,2) + 204.28999M :
+ (V(1,2) < -2.9000000) ? 315.39999M*V(1,2) + 204.87999M :
+ (V(1,2) < -2.8500000) ? 314.79999M*V(1,2) + 203.13999M :
+ (V(1,2) < -2.8000000) ? 314.99999M*V(1,2) + 203.70999M :
+ (V(1,2) < -2.7500000) ? 314.59999M*V(1,2) + 202.58999M :
+ (V(1,2) < -2.7000000) ? 314.59999M*V(1,2) + 202.58999M :
+ (V(1,2) < -2.6000000) ? 314.19999M*V(1,2) + 201.50999M :
+ (V(1,2) < -2.5500000) ? 313.79999M*V(1,2) + 200.46999M :
+ (V(1,2) < -2.5000000) ? 313.79999M*V(1,2) + 200.46999M :
+ (V(1,2) < -2.4500000) ? 313.59999M*V(1,2) + 199.96999M :
+ (V(1,2) < -2.4000000) ? 313.39999M*V(1,2) + 199.47999M :
+ (V(1,2) < -2.3500000) ? 312.99999M*V(1,2) + 198.51999M :
+ (V(1,2) < -2.3000000) ? 312.79999M*V(1,2) + 198.04999M :
+ (V(1,2) < -2.2500000) ? 312.59999M*V(1,2) + 197.58999M :
+ (V(1,2) < -2.2000000) ? 312.39999M*V(1,2) + 197.13999M :
+ (V(1,2) < -2.1500000) ? 311.79999M*V(1,2) + 195.81999M :
+ (V(1,2) < -2.1000000) ? 311.99999M*V(1,2) + 196.24999M :
+ (V(1,2) < -2.0500000) ? 311.19999M*V(1,2) + 194.56999M :
+ (V(1,2) < -2.0000000) ? 311.39999M*V(1,2) + 194.97999M :
+ (V(1,2) < -1.9500000) ? 310.59999M*V(1,2) + 193.37999M :
+ (V(1,2) < -1.9000000) ? 310.39999M*V(1,2) + 192.98999M :
+ (V(1,2) < -1.8500000) ? 309.79999M*V(1,2) + 191.84999M :
+ (V(1,2) < -1.8000000) ? 309.79999M*V(1,2) + 191.84999M :
+ (V(1,2) < -1.7500000) ? 308.99999M*V(1,2) + 190.40999M :
+ (V(1,2) < -1.7000000) ? 308.79999M*V(1,2) + 190.05999M :
+ (V(1,2) < -1.6500000) ? 307.79999M*V(1,2) + 188.35999M :
+ (V(1,2) < -1.6000000) ? 307.99999M*V(1,2) + 188.68999M :
+ (V(1,2) < -1.5500000) ? 306.59999M*V(1,2) + 186.44999M :
+ (V(1,2) < -1.5000000) ? 306.59999M*V(1,2) + 186.44999M :
+ (V(1,2) < -1.4500000) ? 305.39999M*V(1,2) + 184.64999M :
+ (V(1,2) < -1.4000000) ? 305.19999M*V(1,2) + 184.35999M :
+ (V(1,2) < -1.3500000) ? 303.39999M*V(1,2) + 181.83999M :
+ (V(1,2) < -1.3000000) ? 303.39999M*V(1,2) + 181.83999M :
+ (V(1,2) < -1.2500000) ? 301.39999M*V(1,2) + 179.23999M :
+ (V(1,2) < -1.2000000) ? 301.19999M*V(1,2) + 178.98999M :
+ (V(1,2) < -1.1500000) ? 298.39999M*V(1,2) + 175.62999M :
+ (V(1,2) < -1.1000000) ? 298.39999M*V(1,2) + 175.62999M :
+ (V(1,2) < -1.0500000) ? 294.39999M*V(1,2) + 171.22999M :
+ (V(1,2) < -1.0000000) ? 294.59999M*V(1,2) + 171.43999M :
+ (V(1,2) < -949.99995M) ? 288.79999M*V(1,2) + 165.63999M :
+ (V(1,2) < -899.99996M) ? 288.79999M*V(1,2) + 165.63999M :
+ (V(1,2) < -849.99996M) ? 279.99999M*V(1,2) + 157.71999M :
+ (V(1,2) < -799.99996M) ? 279.99999M*V(1,2) + 157.71999M :
+ (V(1,2) < -749.99996M) ? 263.79999M*V(1,2) + 144.75999M :
+ (V(1,2) < -699.99997M) ? 263.79999M*V(1,2) + 144.75999M :
+ (V(1,2) < -649.99997M) ? 228.59999M*V(1,2) + 120.11999M :
+ (V(1,2) < -599.99997M) ? 228.59999M*V(1,2) + 120.11999M :
+ (V(1,2) < -549.99997M) ? 139.99999M*V(1,2) + 66.959997M :
+ (V(1,2) < -499.99998M) ? 139.79999M*V(1,2) + 66.849997M :
+ (V(1,2) < -449.99998M) ? 28.599999M*V(1,2) + 11.249999M :
+ (V(1,2) < -399.99998M) ? 28.607799M*V(1,2) + 11.253509M :
+ (V(1,2) < -299.99999M) ? 1.7833999M*V(1,2) + 523.75000U :
+ (V(1,2) < -249.99999M) ? 96.000000U*V(1,2) + 17.530000U :
+ (V(1,2) < -199.99999M) ? 96.000000U*V(1,2) + 17.530000U :
+ (V(1,2) < -149.99999M) ? 7.2000000U*V(1,2) + -230.00001N :
+ (V(1,2) < -99.999995M) ? 7.3501996U*V(1,2) + -207.47006N :
+ (V(1,2) < -49.999998M) ? 1.8436000U*V(1,2) + -758.13004N :
+ (V(1,2) < 0.0000000E+00) ? 1.8434000U*V(1,2) + -758.14004N :
+ (V(1,2) < 5.0000000) ? 151.62801N*V(1,2) + -758.14004N :
+ 1.0000000N*V(1,2) + -5.0000001N
.ENDS
*
.SUBCKT VCC_OUT6IW 3    4    1   2
*               OUT+ OUT- IN+ IN-
B1V6IW 3 4 I= 
+ (V(1,2) < -5.0000000) ? 1.0000000N*V(1,2) + 439.17998M :
+ (V(1,2) < -4.9500000) ? -104.60000M*V(1,2) + -83.819996M :
+ (V(1,2) < -4.9000000) ? -104.80000M*V(1,2) + -84.809996M :
+ (V(1,2) < -4.8500000) ? -104.60000M*V(1,2) + -83.829996M :
+ (V(1,2) < -4.8000000) ? -104.60000M*V(1,2) + -83.829996M :
+ (V(1,2) < -4.7500000) ? -104.40000M*V(1,2) + -82.869996M :
+ (V(1,2) < -4.7000000) ? -104.40000M*V(1,2) + -82.869996M :
+ (V(1,2) < -4.6500000) ? -104.40000M*V(1,2) + -82.869996M :
+ (V(1,2) < -4.6000000) ? -104.20000M*V(1,2) + -81.939996M :
+ (V(1,2) < -4.5500000) ? -104.20000M*V(1,2) + -81.939996M :
+ (V(1,2) < -4.5000000) ? -104.20000M*V(1,2) + -81.939996M :
+ (V(1,2) < -4.4500000) ? -104.00000M*V(1,2) + -81.039996M :
+ (V(1,2) < -4.4000000) ? -104.00000M*V(1,2) + -81.039996M :
+ (V(1,2) < -4.3500000) ? -103.80000M*V(1,2) + -80.159996M :
+ (V(1,2) < -4.3000000) ? -103.80000M*V(1,2) + -80.159996M :
+ (V(1,2) < -4.2500000) ? -103.80000M*V(1,2) + -80.159996M :
+ (V(1,2) < -4.2000000) ? -103.60000M*V(1,2) + -79.309996M :
+ (V(1,2) < -4.1500000) ? -103.60000M*V(1,2) + -79.309996M :
+ (V(1,2) < -4.1000000) ? -103.60000M*V(1,2) + -79.309996M :
+ (V(1,2) < -4.0500000) ? -103.20000M*V(1,2) + -77.669996M :
+ (V(1,2) < -4.0000000) ? -103.40000M*V(1,2) + -78.479996M :
+ (V(1,2) < -3.9000000) ? -103.20000M*V(1,2) + -77.679996M :
+ (V(1,2) < -3.8000000) ? -103.00000M*V(1,2) + -76.899996M :
+ (V(1,2) < -3.7500000) ? -102.60000M*V(1,2) + -75.379996M :
+ (V(1,2) < -3.7000000) ? -102.80000M*V(1,2) + -76.129996M :
+ (V(1,2) < -3.6500000) ? -102.60000M*V(1,2) + -75.389996M :
+ (V(1,2) < -3.6000000) ? -102.60000M*V(1,2) + -75.389996M :
+ (V(1,2) < -3.5500000) ? -102.40000M*V(1,2) + -74.669996M :
+ (V(1,2) < -3.5000000) ? -102.20000M*V(1,2) + -73.959996M :
+ (V(1,2) < -3.4500000) ? -102.20000M*V(1,2) + -73.959996M :
+ (V(1,2) < -3.4000000) ? -102.20000M*V(1,2) + -73.959996M :
+ (V(1,2) < -3.3500000) ? -101.80000M*V(1,2) + -72.599997M :
+ (V(1,2) < -3.3000000) ? -101.80000M*V(1,2) + -72.599997M :
+ (V(1,2) < -3.2500000) ? -101.60000M*V(1,2) + -71.939997M :
+ (V(1,2) < -3.2000000) ? -101.60000M*V(1,2) + -71.939997M :
+ (V(1,2) < -3.1500000) ? -101.40000M*V(1,2) + -71.299997M :
+ (V(1,2) < -3.1000000) ? -101.40000M*V(1,2) + -71.299997M :
+ (V(1,2) < -3.0500000) ? -101.00000M*V(1,2) + -70.059997M :
+ (V(1,2) < -3.0000000) ? -101.20000M*V(1,2) + -70.669997M :
+ (V(1,2) < -2.9500000) ? -100.80000M*V(1,2) + -69.469997M :
+ (V(1,2) < -2.9000000) ? -100.60000M*V(1,2) + -68.879997M :
+ (V(1,2) < -2.8500000) ? -100.60000M*V(1,2) + -68.879997M :
+ (V(1,2) < -2.8000000) ? -100.40000M*V(1,2) + -68.309997M :
+ (V(1,2) < -2.7500000) ? -100.20000M*V(1,2) + -67.749997M :
+ (V(1,2) < -2.7000000) ? -99.999995M*V(1,2) + -67.199997M :
+ (V(1,2) < -2.6500000) ? -99.799995M*V(1,2) + -66.659997M :
+ (V(1,2) < -2.6000000) ? -99.799995M*V(1,2) + -66.659997M :
+ (V(1,2) < -2.5500000) ? -99.399995M*V(1,2) + -65.619997M :
+ (V(1,2) < -2.5000000) ? -99.399995M*V(1,2) + -65.619997M :
+ (V(1,2) < -2.4500000) ? -98.999995M*V(1,2) + -64.619997M :
+ (V(1,2) < -2.4000000) ? -99.199995M*V(1,2) + -65.109997M :
+ (V(1,2) < -2.3500000) ? -98.599995M*V(1,2) + -63.669997M :
+ (V(1,2) < -2.3000000) ? -98.599995M*V(1,2) + -63.669997M :
+ (V(1,2) < -2.2500000) ? -97.999995M*V(1,2) + -62.289997M :
+ (V(1,2) < -2.2000000) ? -98.199995M*V(1,2) + -62.739997M :
+ (V(1,2) < -2.1500000) ? -97.799995M*V(1,2) + -61.859997M :
+ (V(1,2) < -2.1000000) ? -97.599995M*V(1,2) + -61.429997M :
+ (V(1,2) < -2.0500000) ? -97.199995M*V(1,2) + -60.589997M :
+ (V(1,2) < -2.0000000) ? -97.199995M*V(1,2) + -60.589997M :
+ (V(1,2) < -1.9500000) ? -96.599995M*V(1,2) + -59.389997M :
+ (V(1,2) < -1.9000000) ? -96.599995M*V(1,2) + -59.389997M :
+ (V(1,2) < -1.8500000) ? -95.999995M*V(1,2) + -58.249997M :
+ (V(1,2) < -1.8000000) ? -95.999995M*V(1,2) + -58.249997M :
+ (V(1,2) < -1.7500000) ? -95.399995M*V(1,2) + -57.169997M :
+ (V(1,2) < -1.7000000) ? -95.199995M*V(1,2) + -56.819997M :
+ (V(1,2) < -1.6500000) ? -94.799995M*V(1,2) + -56.139997M :
+ (V(1,2) < -1.6000000) ? -94.599996M*V(1,2) + -55.809997M :
+ (V(1,2) < -1.5500000) ? -93.799996M*V(1,2) + -54.529997M :
+ (V(1,2) < -1.5000000) ? -93.999996M*V(1,2) + -54.839997M :
+ (V(1,2) < -1.4500000) ? -92.999996M*V(1,2) + -53.339997M :
+ (V(1,2) < -1.4000000) ? -92.999996M*V(1,2) + -53.339997M :
+ (V(1,2) < -1.3500000) ? -91.999996M*V(1,2) + -51.939998M :
+ (V(1,2) < -1.3000000) ? -91.999996M*V(1,2) + -51.939998M :
+ (V(1,2) < -1.2500000) ? -90.999996M*V(1,2) + -50.639998M :
+ (V(1,2) < -1.2000000) ? -90.799996M*V(1,2) + -50.389998M :
+ (V(1,2) < -1.1500000) ? -89.599996M*V(1,2) + -48.949998M :
+ (V(1,2) < -1.1000000) ? -89.599996M*V(1,2) + -48.949998M :
+ (V(1,2) < -1.0500000) ? -88.199996M*V(1,2) + -47.409998M :
+ (V(1,2) < -1.0000000) ? -87.999996M*V(1,2) + -47.199998M :
+ (V(1,2) < -899.99996M) ? -86.099996M*V(1,2) + -45.299998M :
+ (V(1,2) < -849.99996M) ? -83.399996M*V(1,2) + -42.869998M :
+ (V(1,2) < -799.99996M) ? -83.399996M*V(1,2) + -42.869998M :
+ (V(1,2) < -749.99996M) ? -79.599996M*V(1,2) + -39.829998M :
+ (V(1,2) < -699.99997M) ? -79.599996M*V(1,2) + -39.829998M :
+ (V(1,2) < -649.99997M) ? -72.599997M*V(1,2) + -34.929998M :
+ (V(1,2) < -599.99997M) ? -72.799997M*V(1,2) + -35.059998M :
+ (V(1,2) < -549.99997M) ? -57.599997M*V(1,2) + -25.939999M :
+ (V(1,2) < -499.99998M) ? -57.799997M*V(1,2) + -26.049999M :
+ (V(1,2) < -449.99998M) ? -25.399999M*V(1,2) + -9.8499995M :
+ (V(1,2) < -399.99998M) ? -25.315199M*V(1,2) + -9.8118395M :
+ (V(1,2) < -349.99998M) ? -2.9839999M*V(1,2) + -879.36000U :
+ (V(1,2) < -299.99999M) ? -2.9839999M*V(1,2) + -879.36000U :
+ (V(1,2) < -249.99999M) ? -150.20000U*V(1,2) + -29.220000U :
+ (V(1,2) < -199.99999M) ? -150.17080U*V(1,2) + -29.212700U :
+ (V(1,2) < -149.99999M) ? -6.9450002U*V(1,2) + -567.54003N :
+ (V(1,2) < -99.999995M) ? -6.9450002U*V(1,2) + -567.54003N :
+ (V(1,2) < -49.999998M) ? -390.80002N*V(1,2) + 87.880004N :
+ (V(1,2) < 0.0000000E+00) ? -391.00002N*V(1,2) + 87.870004N :
+ (V(1,2) < 5.0000000) ? -17.574001N*V(1,2) + 87.870004N :
+ 1.0000000N*V(1,2) + -5.0000001N
.ENDS
***********
.SUBCKT TSCB06IB 4     300 400
*Connections    Input VCC VEE
*Pin type signal_name model_name spice_name spice_version
*82473fx
*xx	I	xx		TSC_B06120A1A2AZZRLF	TSCB06IB	3
*Best Case Model    - Max Currents, Min Rise/Fall, Min Package
*Worst Case Model - Min Currents, Max Rise/Fall, Max Package
* Diode Clamps
XVCC_OUT 6 300 300 6 VCC_OUT6IB
XGND_OUT 6 400 6 400 GND_OUT6IB
V5 6 5 
* Package Parasitics Min
ROSNB 5 1 100
ROPKG 1 4 .227
COPKG 4 400 1.21P
CCOMP 5 400 2.79P
LOPKG 5 1 6.11N
.ENDS
*Current Max
.SUBCKT GND_OUT6IB  3    4    1   2
*                OUT+ OUT- IN+ IN-
B1G6IB 3 4 I= 
+ (V(1,2) < -5.0000000) ? 1.0000000N*V(1,2) + -1.4900000 :
+ (V(1,2) < -4.9500000) ? 399.99998M*V(1,2) + 509.99998M :
+ (V(1,2) < -4.9000000) ? 399.99998M*V(1,2) + 509.99998M :
+ (V(1,2) < -4.8500000) ? 399.99998M*V(1,2) + 509.99998M :
+ (V(1,2) < -4.8000000) ? 199.99999M*V(1,2) + -459.99998M :
+ (V(1,2) < -4.7500000) ? 399.99998M*V(1,2) + 499.99998M :
+ (V(1,2) < -4.7000000) ? 399.99998M*V(1,2) + 499.99998M :
+ (V(1,2) < -4.6500000) ? 399.99998M*V(1,2) + 499.99998M :
+ (V(1,2) < -4.6000000) ? 399.99998M*V(1,2) + 499.99998M :
+ (V(1,2) < -4.5500000) ? 199.99999M*V(1,2) + -419.99998M :
+ (V(1,2) < -4.5000000) ? 399.99998M*V(1,2) + 489.99998M :
+ (V(1,2) < -4.4500000) ? 399.99998M*V(1,2) + 489.99998M :
+ (V(1,2) < -4.4000000) ? 399.99998M*V(1,2) + 489.99998M :
+ (V(1,2) < -4.3500000) ? 199.99999M*V(1,2) + -389.99998M :
+ (V(1,2) < -4.3000000) ? 399.99998M*V(1,2) + 479.99998M :
+ (V(1,2) < -4.2500000) ? 399.99998M*V(1,2) + 479.99998M :
+ (V(1,2) < -4.2000000) ? 399.99998M*V(1,2) + 479.99998M :
+ (V(1,2) < -4.1500000) ? 399.99998M*V(1,2) + 479.99998M :
+ (V(1,2) < -4.1000000) ? 199.99999M*V(1,2) + -349.99998M :
+ (V(1,2) < -4.0500000) ? 399.99998M*V(1,2) + 469.99998M :
+ (V(1,2) < -4.0000000) ? 399.99998M*V(1,2) + 469.99998M :
+ (V(1,2) < -3.9500000) ? 399.99998M*V(1,2) + 469.99998M :
+ (V(1,2) < -3.9000000) ? 199.99999M*V(1,2) + -319.99998M :
+ (V(1,2) < -3.8500000) ? 399.99998M*V(1,2) + 459.99998M :
+ (V(1,2) < -3.8000000) ? 399.99998M*V(1,2) + 459.99998M :
+ (V(1,2) < -3.7500000) ? 399.99998M*V(1,2) + 459.99998M :
+ (V(1,2) < -3.7000000) ? 399.99998M*V(1,2) + 459.99998M :
+ (V(1,2) < -3.6500000) ? 199.99999M*V(1,2) + -279.99999M :
+ (V(1,2) < -3.6000000) ? 423.99998M*V(1,2) + 537.59997M :
+ (V(1,2) < -3.5500000) ? 354.19998M*V(1,2) + 286.31999M :
+ (V(1,2) < -3.5000000) ? 354.19998M*V(1,2) + 286.31999M :
+ (V(1,2) < -3.4500000) ? 354.19998M*V(1,2) + 286.31999M :
+ (V(1,2) < -3.4000000) ? 353.99998M*V(1,2) + 285.62999M :
+ (V(1,2) < -3.3500000) ? 353.79998M*V(1,2) + 284.94999M :
+ (V(1,2) < -3.3000000) ? 353.79998M*V(1,2) + 284.94999M :
+ (V(1,2) < -3.2500000) ? 353.39998M*V(1,2) + 283.62999M :
+ (V(1,2) < -3.2000000) ? 353.59998M*V(1,2) + 284.27999M :
+ (V(1,2) < -3.1500000) ? 353.19998M*V(1,2) + 282.99999M :
+ (V(1,2) < -3.1000000) ? 353.19998M*V(1,2) + 282.99999M :
+ (V(1,2) < -3.0500000) ? 352.99998M*V(1,2) + 282.37999M :
+ (V(1,2) < -3.0000000) ? 352.99998M*V(1,2) + 282.37999M :
+ (V(1,2) < -2.9500000) ? 352.59998M*V(1,2) + 281.17999M :
+ (V(1,2) < -2.9000000) ? 352.59998M*V(1,2) + 281.17999M :
+ (V(1,2) < -2.8500000) ? 352.19998M*V(1,2) + 280.01999M :
+ (V(1,2) < -2.8000000) ? 352.19998M*V(1,2) + 280.01999M :
+ (V(1,2) < -2.7500000) ? 351.99998M*V(1,2) + 279.45999M :
+ (V(1,2) < -2.7000000) ? 351.79998M*V(1,2) + 278.90999M :
+ (V(1,2) < -2.6000000) ? 351.49998M*V(1,2) + 278.09999M :
+ (V(1,2) < -2.5500000) ? 350.99998M*V(1,2) + 276.79999M :
+ (V(1,2) < -2.5000000) ? 350.99998M*V(1,2) + 276.79999M :
+ (V(1,2) < -2.4500000) ? 350.59998M*V(1,2) + 275.79999M :
+ (V(1,2) < -2.4000000) ? 350.59998M*V(1,2) + 275.79999M :
+ (V(1,2) < -2.3500000) ? 349.99998M*V(1,2) + 274.35999M :
+ (V(1,2) < -2.3000000) ? 349.99998M*V(1,2) + 274.35999M :
+ (V(1,2) < -2.2500000) ? 349.59998M*V(1,2) + 273.43999M :
+ (V(1,2) < -2.2000000) ? 349.39998M*V(1,2) + 272.98999M :
+ (V(1,2) < -2.1500000) ? 348.99998M*V(1,2) + 272.10999M :
+ (V(1,2) < -2.1000000) ? 348.79998M*V(1,2) + 271.67999M :
+ (V(1,2) < -2.0500000) ? 348.19998M*V(1,2) + 270.41999M :
+ (V(1,2) < -2.0000000) ? 348.19998M*V(1,2) + 270.41999M :
+ (V(1,2) < -1.9500000) ? 347.39998M*V(1,2) + 268.81999M :
+ (V(1,2) < -1.9000000) ? 347.39998M*V(1,2) + 268.81999M :
+ (V(1,2) < -1.8500000) ? 346.59998M*V(1,2) + 267.29999M :
+ (V(1,2) < -1.8000000) ? 346.59998M*V(1,2) + 267.29999M :
+ (V(1,2) < -1.7500000) ? 345.39998M*V(1,2) + 265.13999M :
+ (V(1,2) < -1.7000000) ? 345.59998M*V(1,2) + 265.48999M :
+ (V(1,2) < -1.6500000) ? 344.19998M*V(1,2) + 263.10999M :
+ (V(1,2) < -1.6000000) ? 344.39998M*V(1,2) + 263.43999M :
+ (V(1,2) < -1.5500000) ? 342.79998M*V(1,2) + 260.87999M :
+ (V(1,2) < -1.5000000) ? 342.99998M*V(1,2) + 261.18999M :
+ (V(1,2) < -1.4500000) ? 340.99998M*V(1,2) + 258.18999M :
+ (V(1,2) < -1.4000000) ? 340.99998M*V(1,2) + 258.18999M :
+ (V(1,2) < -1.3500000) ? 338.79998M*V(1,2) + 255.10999M :
+ (V(1,2) < -1.3000000) ? 338.79998M*V(1,2) + 255.10999M :
+ (V(1,2) < -1.2500000) ? 335.79998M*V(1,2) + 251.20999M :
+ (V(1,2) < -1.2000000) ? 335.59998M*V(1,2) + 250.95999M :
+ (V(1,2) < -1.1500000) ? 331.59998M*V(1,2) + 246.15999M :
+ (V(1,2) < -1.1000000) ? 331.39998M*V(1,2) + 245.92999M :
+ (V(1,2) < -1.0500000) ? 324.79998M*V(1,2) + 238.66999M :
+ (V(1,2) < -1.0000000) ? 324.99998M*V(1,2) + 238.87999M :
+ (V(1,2) < -949.99995M) ? 313.39999M*V(1,2) + 227.27999M :
+ (V(1,2) < -899.99996M) ? 313.39999M*V(1,2) + 227.27999M :
+ (V(1,2) < -849.99996M) ? 287.99999M*V(1,2) + 204.41999M :
+ (V(1,2) < -799.99996M) ? 287.79999M*V(1,2) + 204.24999M :
+ (V(1,2) < -749.99996M) ? 208.39999M*V(1,2) + 140.72999M :
+ (V(1,2) < -699.99997M) ? 208.39999M*V(1,2) + 140.72999M :
+ (V(1,2) < -649.99997M) ? 48.399998M*V(1,2) + 28.729999M :
+ (V(1,2) < -599.99997M) ? 48.418998M*V(1,2) + 28.742349M :
+ (V(1,2) < -549.99997M) ? 2.9679999M*V(1,2) + 1.4717499M :
+ (V(1,2) < -499.99998M) ? 2.9679999M*V(1,2) + 1.4717499M :
+ (V(1,2) < -449.99998M) ? 114.60000U*V(1,2) + 45.050000U :
+ (V(1,2) < -399.99998M) ? 114.55420U*V(1,2) + 45.029390U :
+ (V(1,2) < -299.99999M) ? 6.7883002U*V(1,2) + 1.9230300U :
+ (V(1,2) < -249.99999M) ? 518.60003N*V(1,2) + 42.120002N :
+ (V(1,2) < -199.99999M) ? 518.40003N*V(1,2) + 42.070002N :
+ (V(1,2) < -149.99999M) ? 147.80001N*V(1,2) + -32.050002N :
+ (V(1,2) < -99.999995M) ? 147.80001N*V(1,2) + -32.050002N :
+ (V(1,2) < -49.999998M) ? 103.80001N*V(1,2) + -36.450002N :
+ (V(1,2) < 0.0000000E+00) ? 103.80001N*V(1,2) + -36.450002N :
+ (V(1,2) < 5.0000000) ? 7.2900004N*V(1,2) + -36.450002N :
+ 1.0000000N*V(1,2) + -5.0000001N
.ENDS
*
.SUBCKT VCC_OUT6IB 3    4    1   2
*               OUT+ OUT- IN+ IN-
B1V6IB 3 4 I= 
+ (V(1,2) < -5.0000000) ? 1.0000000N*V(1,2) + 501.06998M :
+ (V(1,2) < -4.9500000) ? -125.79999M*V(1,2) + -127.92999M :
+ (V(1,2) < -4.9000000) ? -125.79999M*V(1,2) + -127.92999M :
+ (V(1,2) < -4.8500000) ? -125.39999M*V(1,2) + -125.96999M :
+ (V(1,2) < -4.8000000) ? -125.59999M*V(1,2) + -126.93999M :
+ (V(1,2) < -4.7500000) ? -125.39999M*V(1,2) + -125.97999M :
+ (V(1,2) < -4.7000000) ? -125.39999M*V(1,2) + -125.97999M :
+ (V(1,2) < -4.6500000) ? -124.99999M*V(1,2) + -124.09999M :
+ (V(1,2) < -4.6000000) ? -125.19999M*V(1,2) + -125.02999M :
+ (V(1,2) < -4.5500000) ? -124.79999M*V(1,2) + -123.18999M :
+ (V(1,2) < -4.5000000) ? -124.99999M*V(1,2) + -124.09999M :
+ (V(1,2) < -4.4500000) ? -124.59999M*V(1,2) + -122.29999M :
+ (V(1,2) < -4.4000000) ? -124.79999M*V(1,2) + -123.18999M :
+ (V(1,2) < -4.3500000) ? -124.39999M*V(1,2) + -121.42999M :
+ (V(1,2) < -4.3000000) ? -124.39999M*V(1,2) + -121.42999M :
+ (V(1,2) < -4.2500000) ? -124.19999M*V(1,2) + -120.56999M :
+ (V(1,2) < -4.2000000) ? -124.19999M*V(1,2) + -120.56999M :
+ (V(1,2) < -4.1500000) ? -123.99999M*V(1,2) + -119.72999M :
+ (V(1,2) < -4.1000000) ? -123.99999M*V(1,2) + -119.72999M :
+ (V(1,2) < -4.0500000) ? -123.59999M*V(1,2) + -118.08999M :
+ (V(1,2) < -4.0000000) ? -123.79999M*V(1,2) + -118.89999M :
+ (V(1,2) < -3.9000000) ? -123.39999M*V(1,2) + -117.29999M :
+ (V(1,2) < -3.8000000) ? -123.09999M*V(1,2) + -116.12999M :
+ (V(1,2) < -3.7500000) ? -122.79999M*V(1,2) + -114.98999M :
+ (V(1,2) < -3.7000000) ? -122.79999M*V(1,2) + -114.98999M :
+ (V(1,2) < -3.6500000) ? -122.39999M*V(1,2) + -113.50999M :
+ (V(1,2) < -3.6000000) ? -122.59999M*V(1,2) + -114.23999M :
+ (V(1,2) < -3.5500000) ? -122.19999M*V(1,2) + -112.79999M :
+ (V(1,2) < -3.5000000) ? -121.99999M*V(1,2) + -112.08999M :
+ (V(1,2) < -3.4500000) ? -121.79999M*V(1,2) + -111.38999M :
+ (V(1,2) < -3.4000000) ? -121.79999M*V(1,2) + -111.38999M :
+ (V(1,2) < -3.3500000) ? -121.59999M*V(1,2) + -110.70999M :
+ (V(1,2) < -3.3000000) ? -121.39999M*V(1,2) + -110.03999M :
+ (V(1,2) < -3.2500000) ? -120.99999M*V(1,2) + -108.71999M :
+ (V(1,2) < -3.2000000) ? -120.99999M*V(1,2) + -108.71999M :
+ (V(1,2) < -3.1500000) ? -120.59999M*V(1,2) + -107.43999M :
+ (V(1,2) < -3.1000000) ? -120.59999M*V(1,2) + -107.43999M :
+ (V(1,2) < -3.0500000) ? -120.19999M*V(1,2) + -106.19999M :
+ (V(1,2) < -3.0000000) ? -120.19999M*V(1,2) + -106.19999M :
+ (V(1,2) < -2.9500000) ? -119.79999M*V(1,2) + -105.00000M :
+ (V(1,2) < -2.9000000) ? -119.79999M*V(1,2) + -105.00000M :
+ (V(1,2) < -2.8500000) ? -119.19999M*V(1,2) + -103.26000M :
+ (V(1,2) < -2.8000000) ? -119.19999M*V(1,2) + -103.26000M :
+ (V(1,2) < -2.7500000) ? -118.79999M*V(1,2) + -102.14000M :
+ (V(1,2) < -2.7000000) ? -118.79999M*V(1,2) + -102.14000M :
+ (V(1,2) < -2.6500000) ? -118.19999M*V(1,2) + -100.52000M :
+ (V(1,2) < -2.6000000) ? -118.19999M*V(1,2) + -100.52000M :
+ (V(1,2) < -2.5500000) ? -117.59999M*V(1,2) + -98.959995M :
+ (V(1,2) < -2.5000000) ? -117.59999M*V(1,2) + -98.959995M :
+ (V(1,2) < -2.4500000) ? -116.99999M*V(1,2) + -97.459995M :
+ (V(1,2) < -2.4000000) ? -117.19999M*V(1,2) + -97.949995M :
+ (V(1,2) < -2.3500000) ? -116.19999M*V(1,2) + -95.549995M :
+ (V(1,2) < -2.3000000) ? -116.39999M*V(1,2) + -96.019995M :
+ (V(1,2) < -2.2500000) ? -115.79999M*V(1,2) + -94.639996M :
+ (V(1,2) < -2.2000000) ? -115.59999M*V(1,2) + -94.189996M :
+ (V(1,2) < -2.1500000) ? -114.99999M*V(1,2) + -92.869996M :
+ (V(1,2) < -2.1000000) ? -114.79999M*V(1,2) + -92.439996M :
+ (V(1,2) < -2.0500000) ? -114.19999M*V(1,2) + -91.179996M :
+ (V(1,2) < -2.0000000) ? -114.19999M*V(1,2) + -91.179996M :
+ (V(1,2) < -1.9500000) ? -113.19999M*V(1,2) + -89.179996M :
+ (V(1,2) < -1.9000000) ? -113.39999M*V(1,2) + -89.569996M :
+ (V(1,2) < -1.8500000) ? -112.19999M*V(1,2) + -87.289996M :
+ (V(1,2) < -1.8000000) ? -112.39999M*V(1,2) + -87.659996M :
+ (V(1,2) < -1.7500000) ? -111.39999M*V(1,2) + -85.859996M :
+ (V(1,2) < -1.7000000) ? -111.19999M*V(1,2) + -85.509996M :
+ (V(1,2) < -1.6500000) ? -110.39999M*V(1,2) + -84.149996M :
+ (V(1,2) < -1.6000000) ? -110.19999M*V(1,2) + -83.819996M :
+ (V(1,2) < -1.5500000) ? -108.99999M*V(1,2) + -81.899996M :
+ (V(1,2) < -1.5000000) ? -108.99999M*V(1,2) + -81.899996M :
+ (V(1,2) < -1.4500000) ? -107.59999M*V(1,2) + -79.799996M :
+ (V(1,2) < -1.4000000) ? -107.59999M*V(1,2) + -79.799996M :
+ (V(1,2) < -1.3500000) ? -105.99999M*V(1,2) + -77.559996M :
+ (V(1,2) < -1.3000000) ? -106.19999M*V(1,2) + -77.829996M :
+ (V(1,2) < -1.2500000) ? -104.20000M*V(1,2) + -75.229996M :
+ (V(1,2) < -1.2000000) ? -104.20000M*V(1,2) + -75.229996M :
+ (V(1,2) < -1.1500000) ? -102.20000M*V(1,2) + -72.829997M :
+ (V(1,2) < -1.1000000) ? -102.20000M*V(1,2) + -72.829997M :
+ (V(1,2) < -1.0500000) ? -99.399995M*V(1,2) + -69.749997M :
+ (V(1,2) < -1.0000000) ? -99.399995M*V(1,2) + -69.749997M :
+ (V(1,2) < -899.99996M) ? -95.599995M*V(1,2) + -65.949997M :
+ (V(1,2) < -849.99996M) ? -89.399996M*V(1,2) + -60.369997M :
+ (V(1,2) < -799.99996M) ? -89.399996M*V(1,2) + -60.369997M :
+ (V(1,2) < -749.99996M) ? -75.199996M*V(1,2) + -49.009998M :
+ (V(1,2) < -699.99997M) ? -75.399996M*V(1,2) + -49.159998M :
+ (V(1,2) < -649.99997M) ? -33.999998M*V(1,2) + -20.179999M :
+ (V(1,2) < -599.99997M) ? -34.130798M*V(1,2) + -20.265019M :
+ (V(1,2) < -549.99997M) ? -2.0933999M*V(1,2) + -1.0425800M :
+ (V(1,2) < -499.99998M) ? -2.0933999M*V(1,2) + -1.0425800M :
+ (V(1,2) < -449.99998M) ? -40.200000U*V(1,2) + -15.980000U :
+ (V(1,2) < -399.99998M) ? -40.219800U*V(1,2) + -15.988910U :
+ (V(1,2) < -349.99998M) ? -950.00005N*V(1,2) + -280.99001N :
+ (V(1,2) < -299.99999M) ? -950.00005N*V(1,2) + -280.99001N :
+ (V(1,2) < -249.99999M) ? -30.400001N*V(1,2) + -5.1100002N :
+ (V(1,2) < -199.99999M) ? -30.150002N*V(1,2) + -5.0475004N :
+ (V(1,2) < -149.99999M) ? -1.9184000N*V(1,2) + 598.82000P :
+ (V(1,2) < -99.999995M) ? -1.9186000N*V(1,2) + 598.79000P :
+ (V(1,2) < -49.999998M) ? -1.0164000N*V(1,2) + 689.01000P :
+ (V(1,2) < 0.0000000E+00) ? -1.0164000N*V(1,2) + 689.01000P :
+ (V(1,2) < 5.0000000) ? -137.80200P*V(1,2) + 689.01000P :
+ 1.0000000N*V(1,2) + -5.0000001N
.ENDS
***********
.SUBCKT TSCB06OB 100   4      300 400 500
*Connections         Input Output VCC VEE Enable
*82473fx
*Pin type signal_name model_name spice_name spice_version
*xx	O	xx		TSC_B06120A1A2AZZRLF	TSCB06OB	3
*xx	O	xx		TSC_B06120A1A2AZZRLF	TSCB06OW	3
*Best Case Model    - Max Currents, Min Rise/Fall, Min Package
*Worst Case Model - Min Currents, Max Rise/Fall, Max Package
*Passed Parameters; Min
*DEFINE {RTF}=13.949K
*DEFINE {RTR}=18.916K
* Input Control
B1 820 0 V=V(100) & V(500)
B2 830 0 V= V(500) & ~V(100)
* Up and Down Ramps
B3 300 850 I= V(830) > 1.2   ? 0 : V(300,850) / {RTR}
B4 840 400 I= V(820) > 1.2 ? 0 : V(840,400) / {RTF}
C1 300 850 .01P
C2 840 400 .01P
S1 220 850 0 820 SMOD
S2 840 220 0 830 SMOD
.MODEL SMOD SW RON=.1M ROFF=1E15 VT=-1.2 VH=.1
G1 8 400 2 8 1
R1 6 400 1
G2 300 8 8 3 1
R2 300 6 1
* Pull-up/Pull-down structures; Max
XEPL_DN 2 400 8 840 EPWL_DNX6OB
XEPL_UP 3 300 850 8 EPWL_UPX6OB
* Diode Clamps
XVCC_OUT 6 300 300 6 VCC_OUT6OB
XGND_OUT 6 400 6 400 GND_OUT6OB
* Package Parasitics Min
ROSNB 5 1 100
ROPKG 1 4 .227
COPKG 4 400 1.21P
CCOMP 5 400 2.79P
LOPKG 5 1 6.11N
* Voltage Sources for measuring currents
V5 6 5 
V6 8 6 
V7 220 8 
.ENDS
*Subcircuits for the IBIS1 Topology
.SUBCKT GND_OUT6OB  3    4    1   2
*                OUT+ OUT- IN+ IN-
B1G6OB 3 4 I= 
+ (V(1,2) < -5.0000000) ? 1.0000000N*V(1,2) + -1.4900000 :
+ (V(1,2) < -4.9500000) ? 399.99998M*V(1,2) + 509.99998M :
+ (V(1,2) < -4.9000000) ? 399.99998M*V(1,2) + 509.99998M :
+ (V(1,2) < -4.8500000) ? 399.99998M*V(1,2) + 509.99998M :
+ (V(1,2) < -4.8000000) ? 199.99999M*V(1,2) + -459.99998M :
+ (V(1,2) < -4.7500000) ? 399.99998M*V(1,2) + 499.99998M :
+ (V(1,2) < -4.7000000) ? 399.99998M*V(1,2) + 499.99998M :
+ (V(1,2) < -4.6500000) ? 399.99998M*V(1,2) + 499.99998M :
+ (V(1,2) < -4.6000000) ? 399.99998M*V(1,2) + 499.99998M :
+ (V(1,2) < -4.5500000) ? 199.99999M*V(1,2) + -419.99998M :
+ (V(1,2) < -4.5000000) ? 399.99998M*V(1,2) + 489.99998M :
+ (V(1,2) < -4.4500000) ? 399.99998M*V(1,2) + 489.99998M :
+ (V(1,2) < -4.4000000) ? 399.99998M*V(1,2) + 489.99998M :
+ (V(1,2) < -4.3500000) ? 199.99999M*V(1,2) + -389.99998M :
+ (V(1,2) < -4.3000000) ? 399.99998M*V(1,2) + 479.99998M :
+ (V(1,2) < -4.2500000) ? 399.99998M*V(1,2) + 479.99998M :
+ (V(1,2) < -4.2000000) ? 399.99998M*V(1,2) + 479.99998M :
+ (V(1,2) < -4.1500000) ? 399.99998M*V(1,2) + 479.99998M :
+ (V(1,2) < -4.1000000) ? 199.99999M*V(1,2) + -349.99998M :
+ (V(1,2) < -4.0500000) ? 399.99998M*V(1,2) + 469.99998M :
+ (V(1,2) < -4.0000000) ? 399.99998M*V(1,2) + 469.99998M :
+ (V(1,2) < -3.9500000) ? 399.99998M*V(1,2) + 469.99998M :
+ (V(1,2) < -3.9000000) ? 199.99999M*V(1,2) + -319.99998M :
+ (V(1,2) < -3.8500000) ? 399.99998M*V(1,2) + 459.99998M :
+ (V(1,2) < -3.8000000) ? 399.99998M*V(1,2) + 459.99998M :
+ (V(1,2) < -3.7500000) ? 399.99998M*V(1,2) + 459.99998M :
+ (V(1,2) < -3.7000000) ? 399.99998M*V(1,2) + 459.99998M :
+ (V(1,2) < -3.6500000) ? 199.99999M*V(1,2) + -279.99999M :
+ (V(1,2) < -3.6000000) ? 423.99998M*V(1,2) + 537.59997M :
+ (V(1,2) < -3.5500000) ? 354.19998M*V(1,2) + 286.31999M :
+ (V(1,2) < -3.5000000) ? 354.19998M*V(1,2) + 286.31999M :
+ (V(1,2) < -3.4500000) ? 354.19998M*V(1,2) + 286.31999M :
+ (V(1,2) < -3.4000000) ? 353.99998M*V(1,2) + 285.62999M :
+ (V(1,2) < -3.3500000) ? 353.79998M*V(1,2) + 284.94999M :
+ (V(1,2) < -3.3000000) ? 353.79998M*V(1,2) + 284.94999M :
+ (V(1,2) < -3.2500000) ? 353.39998M*V(1,2) + 283.62999M :
+ (V(1,2) < -3.2000000) ? 353.59998M*V(1,2) + 284.27999M :
+ (V(1,2) < -3.1500000) ? 353.19998M*V(1,2) + 282.99999M :
+ (V(1,2) < -3.1000000) ? 353.19998M*V(1,2) + 282.99999M :
+ (V(1,2) < -3.0500000) ? 352.99998M*V(1,2) + 282.37999M :
+ (V(1,2) < -3.0000000) ? 352.99998M*V(1,2) + 282.37999M :
+ (V(1,2) < -2.9500000) ? 352.59998M*V(1,2) + 281.17999M :
+ (V(1,2) < -2.9000000) ? 352.59998M*V(1,2) + 281.17999M :
+ (V(1,2) < -2.8500000) ? 352.19998M*V(1,2) + 280.01999M :