**********
* Copyright Intusoft 1992-1997
* All Rights Reserved
**********
**********
*SRC=SKM25GB;SKM25GB;IGBTs;w/Diode;1000V 25A
*SYM=IGBT
.SUBCKT SKM25GB  10 20 30
*     TERMINALS:  C  G  E
Q1  30  1 10     QOUT
M1   1  2 30 30  MFIN L=1U W=1U
RG  20  2  6
CGD  4  1  787P
RGD  4  1  10MEG
MGD  4  5  2  2  SW L=1U W=1U
EGD  5  2  2  1  1
DDG  2  6  DCGD
MDG  6  7  1  1  SW L=1U W=1U
EDG  7  1  1  2  1
DDS 30  1  DSUB
VEC  8 10  13.5
DEC  1  8  DBE
DFW  30 10 SKM25D
.MODEL SKM25D D (IS=484N RS=17.7M N=1.95 CJO=2.05N VJ=.75 M=.333 TT=288N)
.MODEL QOUT PNP (IS=3.07P BF=2.1 RE=18.9M TF=44.7N TR=510N)
.MODEL MFIN NMOS (LEVEL=1 VTO=5.5
+ KP=1.41 IS=3.07P RS=5.88M CGSO=7.9M RD=.2)
.MODEL SW NMOS (LEVEL=1 VTO=0 KP=.1)
.MODEL DCGD D (CJO=787P VJ=.41 M=.5)
.MODEL DSUB D (IS=3.07P BV=999 IBV=1M CJO=401P VJ=.8 M=.4 TT=432P)
.MODEL DBE  D (IS=3.07P)
*Semikron 1000 Volt  25 Amp  N-Channel IGBT  07-27-1991
.ENDS
**********
*SRC=SKM50GB;SKM50GB;IGBTs;w/Diode;1000V 50A
*SYM=IGBT
.SUBCKT SKM50GB  10 20 30
*     TERMINALS:  C  G  E
Q1  30  1 10     QOUT
M1   1  2 30 30  MFIN L=1U W=1U
RG  20  2  3
CGD  4  1  1.57N
RGD  4  1  10MEG
MGD  4  5  2  2  SW L=1U W=1U
EGD  5  2  2  1  1
DDG  2  6  DCGD
MDG  6  7  1  1  SW L=1U W=1U
EDG  7  1  1  2  1
DDS 30  1  DSUB
VEC  8 10  13.5
DEC  1  8  DBE
DFW  30 10 SKM50D
.MODEL SKM50D D (IS=623N RS=19.9M N=1.95 CJO=2.05N VJ=.75 M=.333 TT=360N)
.MODEL QOUT PNP (IS=6.14P BF=2.1 RE=5.69M TF=53.7N TR=680N)
.MODEL MFIN NMOS (LEVEL=1 VTO=5.5
+ KP=2.56 IS=6.14P RS=1.76M CGSO=15.8M RD=.1)
.MODEL SW NMOS (LEVEL=1 VTO=0 KP=.123)
.MODEL DCGD D (CJO=1.57N VJ=.41 M=.5)
.MODEL DSUB D (IS=6.14P BV=999 IBV=1M CJO=802P VJ=.8 M=.4 TT=576P)
.MODEL DBE  D (IS=6.14P)
*Semikron 1000 Volt  50 Amp  N-Channel IGBT  07-27-1991
.ENDS
**********
*SRC=SKM15GD100D;SKM15GD;IGBTs;w/Diode;1000V 15A
*SYM=IGBT
.SUBCKT SKM15GD  10 20 30
*     TERMINALS:  C  G  E
Q1  30  1 10     QOUT
M1   1  2 30 30  MFIN L=1U W=1U
RG  20  2  10
CGD  4  1  393P
RGD  4  1  10MEG
MGD  4  5  2  2  SW L=1U W=1U
EGD  5  2  2  1  1
DDG  2  6  DCGD
MDG  6  7  1  1  SW L=1U W=1U
EDG  7  1  1  2  1
DDS 30  1  DSUB
VEC  8 10  13.5
DEC  1  8  DBE
DFW  30 10 SKM15D
.MODEL SKM15D D (IS=112N RS=51.7M N=1.95 CJO=618P VJ=.75 M=.333 TT=216N)
.MODEL QOUT PNP (IS=1.84P BF=2.1 RE=18.9M TF=35.8N TR=340N)
.MODEL MFIN NMOS (LEVEL=1 VTO=5.5
+ KP=.623 IS=1.84P RS=5.88M CGSO=3.65M)
.MODEL SW NMOS (LEVEL=1 VTO=0 KP=88.8M)
.MODEL DCGD D (CJO=393P VJ=.41 M=.5)
.MODEL DSUB D (IS=1.84P BV=999 IBV=1M CJO=200P VJ=.8 M=.4 TT=288P)
.MODEL DBE  D (IS=1.84P)
*Semikron 1000 Volt  15 Amp  N-Channel IGBT  07-27-1991
.ENDS
**********
*SRC=MGM5N45;MGM5N45;IGBTs;No Diode;450V 5A
*SYM=IGBT
.SUBCKT MGM5N45  10 20 30
*     TERMINALS:  C  G  E
Q1  30  1 10     QOUT
M1   1  2 30 30  MFIN L=1U W=1U
RG  20  2  30
CGD  4  1  78.7P
RGD  4  1  10MEG
MGD  4  5  2  2  SW L=1U W=1U
EGD  5  2  2  1  1
DDG  2  6  DCGD
MDG  6  7  1  1  SW L=1U W=1U
EDG  7  1  1  2  1
DDS 30  1  DSUB
VEC  8 10  13.5
DEC  1  8  DBE
.MODEL QOUT PNP (IS=946F BF=2.1 RE=.108 TF=71.6N TR=340N)
.MODEL MFIN NMOS (LEVEL=3 VMAX=18.2MEG THETA=60M VTO=3.5
+ KP=.208 IS=946F RS=33.6M CGSO=290U RD=.891)
.MODEL SW NMOS (LEVEL=3 VTO=0 KP=212.9M)
.MODEL DCGD D (CJO=78.7P VJ=.41 M=.5)
.MODEL DSUB D (IS=946F BV=449 IBV=1M CJO=40.1P VJ=.8 M=.4 TT=288P)
.MODEL DBE  D (IS=946F)
*Motorola 450 Volt  5 Amp  N-Channel IGBT  07-27-1991
.ENDS
**********
*SRC=MGM5N50;MGM5N50;IGBTs;No Diode;500V 5A
*SYM=IGBT
.SUBCKT MGM5N50  10 20 30
*     TERMINALS:  C  G  E
Q1  30  1 10     QOUT
M1   1  2 30 30  MFIN L=1U W=1U
RG  20  2  30
CGD  4  1  78.7P
RGD  4  1  10MEG
MGD  4  5  2  2  SW L=1U W=1U
EGD  5  2  2  1  1
DDG  2  6  DCGD
MDG  6  7  1  1  SW L=1U W=1U
EDG  7  1  1  2  1
DDS 30  1  DSUB
VEC  8 10  13.5
DEC  1  8  DBE
.MODEL QOUT PNP (IS=946F BF=2.1 RE=.108 TF=71.6N TR=340N)
.MODEL MFIN NMOS (LEVEL=3 VMAX=18.2MEG THETA=60M VTO=3.5
+ KP=.208 IS=946F RS=33.6M CGSO=290U RD=.2)
.MODEL SW NMOS (LEVEL=3 VTO=0 KP=212.9M)
.MODEL DCGD D (CJO=78.7P VJ=.41 M=.5)
.MODEL DSUB D (IS=946F BV=499 IBV=1M CJO=40.1P VJ=.8 M=.4 TT=288P)
.MODEL DBE  D (IS=946F)
*Motorola 500 Volt  5 Amp  N-Channel IGBT  07-27-1991
.ENDS
**********
*SRC=MGM20N45;MGM20N45;IGBTs;No Diode;450V 20A
*SYM=IGBT
.SUBCKT MGM20N45 10 20 30
*     TERMINALS:  C  G  E
Q1  30  1 10     QOUT
M1   1  2 30 30  MFIN L=1U W=1U
RG  20  2  7.5
CGD  4  1  472P
RGD  4  1  10MEG
MGD  4  5  2  2  SW L=1U W=1U
EGD  5  2  2  1  1
DDG  2  6  DCGD
MDG  6  7  1  1  SW L=1U W=1U
EDG  7  1  1  2  1
DDS 30  1  DSUB
VEC  8 10  13.5
DEC  1  8  DBE
.MODEL QOUT PNP (IS=3.78P BF=2.1 RE=31.9M TF=17.9N TR=5.95U)
.MODEL MFIN NMOS (LEVEL=3 VMAX=18.2MEG THETA=60M VTO=3.5
+ KP=.456 IS=3.78P RS=9.91M CGSO=840U)
.MODEL SW NMOS (LEVEL=3 VTO=0 KP=225.8M)
.MODEL DCGD D (CJO=472P VJ=.41 M=.5)
.MODEL DSUB D (IS=3.78P BV=449 IBV=1M CJO=240P VJ=.8 M=.4 TT=5.04N)
.MODEL DBE  D (IS=3.78P)
*Motorola 450 Volt  20 Amp  N-Channel IGBT  07-27-1991
.ENDS
**********
*SRC=MGM20N50;MGM20N50;IGBTs;No Diode;500V 20A
*SYM=IGBT
.SUBCKT MGM20N50 10 20 30
*     TERMINALS:  C  G  E
Q1  30  1 10     QOUT
M1   1  2 30 30  MFIN L=1U W=1U
RG  20  2  7.5
CGD  4  1  472P
RGD  4  1  10MEG
MGD  4  5  2  2  SW L=1U W=1U
EGD  5  2  2  1  1
DDG  2  6  DCGD
MDG  6  7  1  1  SW L=1U W=1U
EDG  7  1  1  2  1
DDS 30  1  DSUB
VEC  8 10  13.5
DEC  1  8  DBE
.MODEL QOUT PNP (IS=3.78P BF=2.1 RE=31.9M TF=17.9N TR=5.95U)
.MODEL MFIN NMOS (LEVEL=3 VMAX=18.2MEG THETA=60M VTO=3.5
+ KP=.456 IS=3.78P RS=9.91M CGSO=840U)
.MODEL SW NMOS (LEVEL=3 VTO=0 KP=225.8M)
.MODEL DCGD D (CJO=472P VJ=.41 M=.5)
.MODEL DSUB D (IS=3.78P BV=499 IBV=1M CJO=240P VJ=.8 M=.4 TT=5.04N)
.MODEL DBE  D (IS=3.78P)
*Motorola 500 Volt  20 Amp  N-Channel IGBT  07-27-1991
.ENDS
**********
*SRC=IGT4D10;IGT4D10;IGBTs;No Diode;400V 18A
*SYM=IGBT
.SUBCKT IGT4D10  10 20 30
*     TERMINALS:  C  G  E
Q1  30  1 10     QOUT
M1   1  2 30 30  MFIN L=1U W=1U
RG  20  2  8.33
CGD  4  1  78.7P
RGD  4  1  10MEG
MGD  4  5  2  2  SW L=1U W=1U
EGD  5  2  2  1  1
DDG  2  6  DCGD
MDG  6  7  1  1  SW L=1U W=1U
EDG  7  1  1  2  1
DDS 30  1  DSUB
VEC  8 10  13.5
DEC  1  8  DBE
.MODEL QOUT PNP (IS=3P BF=13.6 RE=28.8M TF=26.8N TR=850N)
.MODEL MFIN NMOS (LEVEL=3 VMAX=20.8MEG THETA=52.5M VTO=3.5
+ KP=.130 IS=3P RS=42.1M CGSO=1.04M)
.MODEL SW NMOS (LEVEL=3 VTO=0 KP=955M)
.MODEL DCGD D (CJO=78.7P VJ=.41 M=.5)
.MODEL DSUB D (IS=3P BV=399 IBV=1M CJO=53.2P VJ=.8 M=.4 TT=720P)
.MODEL DBE  D (IS=3P)
*Harris 400 Volt  18 Amp  N-Channel IGBT  07-27-1991
.ENDS
**********
*SRC=IGT4E10;IGT4E10;IGBTs;No Diode;500V 18A
*SYM=IGBT
.SUBCKT IGT4E10  10 20 30
*     TERMINALS:  C  G  E
Q1  30  1 10     QOUT
M1   1  2 30 30  MFIN L=1U W=1U
RG  20  2  8.33
CGD  4  1  78.7P
RGD  4  1  10MEG
MGD  4  5  2  2  SW L=1U W=1U
EGD  5  2  2  1  1
DDG  2  6  DCGD
MDG  6  7  1  1  SW L=1U W=1U
EDG  7  1  1  2  1
DDS 30  1  DSUB
VEC  8 10  13.5
DEC  1  8  DBE
.MODEL QOUT PNP (IS=3P BF=13.6 RE=28.8M TF=26.8N TR=850N)
.MODEL MFIN NMOS (LEVEL=3 VMAX=20.8MEG THETA=52.5M VTO=3.5
+ KP=.130 IS=3P RS=42.1M CGSO=1.04M)
.MODEL SW NMOS (LEVEL=3 VTO=0 KP=955M)
.MODEL DCGD D (CJO=78.7P VJ=.41 M=.5)
.MODEL DSUB D (IS=3P BV=499 IBV=1M CJO=53.2P VJ=.8 M=.4 TT=720P)
.MODEL DBE  D (IS=3P)
*  500 Volt  18 Amp  N-Channel IGBT  07-27-1991
.ENDS
**********
*SRC=IGT4D11;IGT4D11;IGBTs;No Diode;400V 18A
*SYM=IGBT
.SUBCKT IGT4D11  10 20 30
*     TERMINALS:  C  G  E
Q1  30  1 10     QOUT
M1   1  2 30 30  MFIN L=1U W=1U
RG  20  2  8.33
CGD  4  1  78.7P
RGD  4  1  10MEG
MGD  4  5  2  2  SW L=1U W=1U
EGD  5  2  2  1  1
DDG  2  6  DCGD
MDG  6  7  1  1  SW L=1U W=1U
EDG  7  1  1  2  1
DDS 30  1  DSUB
VEC  8 10  13.5
DEC  1  8  DBE
.MODEL QOUT PNP (IS=3P BF=13.6 RE=28.8M TF=17.9N TR=680N)
.MODEL MFIN NMOS (LEVEL=3 VMAX=20.8MEG THETA=52.5M VTO=3.5
+ KP=125.4M IS=3P RS=42.1M CGSO=1.04M)
.MODEL SW NMOS (LEVEL=3 VTO=0 KP=950M)
.MODEL DCGD D (CJO=78.7P VJ=.41 M=.5)
.MODEL DSUB D (IS=3P BV=399 IBV=1M CJO=53.2P VJ=.8 M=.4 TT=576P)
.MODEL DBE  D (IS=3P)
*  400 Volt  18 Amp  N-Channel IGBT  07-27-1991
.ENDS
**********
*SRC=IGT4E11;IGT4E11;IGBTs;No Diode;500V 18A
*SYM=IGBT
.SUBCKT IGT4E11  10 20 30
*     TERMINALS:  C  G  E
Q1  30  1 10     QOUT
M1   1  2 30 30  MFIN L=1U W=1U
RG  20  2  8.33
CGD  4  1  78.7P
RGD  4  1  10MEG
MGD  4  5  2  2  SW L=1U W=1U
EGD  5  2  2  1  1
DDG  2  6  DCGD
MDG  6  7  1  1  SW L=1U W=1U
EDG  7  1  1  2  1
DDS 30  1  DSUB
VEC  8 10  13.5
DEC  1  8  DBE
.MODEL QOUT PNP (IS=3P BF=13.6 RE=28.8M TF=17.9N TR=680N)
.MODEL MFIN NMOS (LEVEL=3 VMAX=20.8MEG THETA=52.5M VTO=3.5
+ KP=125.4M IS=3P RS=42.1M CGSO=1.04M)
.MODEL SW NMOS (LEVEL=3 VTO=0 KP=950M)
.MODEL DCGD D (CJO=78.7P VJ=.41 M=.5)
.MODEL DSUB D (IS=3P BV=499 IBV=1M CJO=53.2P VJ=.8 M=.4 TT=576P)
.MODEL DBE  D (IS=3P)
*  500 Volt  18 Amp  N-Channel IGBT  07-27-1991
.ENDS
**********
*SRC=IGT6D10;IGT6D10;IGBTs;No Diode;400V 18A
*SYM=IGBT
.SUBCKT IGT6D10  10 20 30
*     TERMINALS:  C  G  E
Q1  30  1 10     QOUT
M1   1  2 30 30  MFIN L=1U W=1U
RG  20  2  8.33
CGD  4  1  78.7P
RGD  4  1  10MEG
MGD  4  5  2  2  SW L=1U W=1U
EGD  5  2  2  1  1
DDG  2  6  DCGD
MDG  6  7  1  1  SW L=1U W=1U
EDG  7  1  1  2  1
DDS 30  1  DSUB
VEC  8 10  13.5
DEC  1  8  DBE
.MODEL QOUT PNP (IS=3P BF=13.6 RE=28.8M TF=26.8N TR=850N)
.MODEL MFIN NMOS (LEVEL=3 VMAX=20.8MEG THETA=52.5M VTO=3.5
+ KP=128.4M IS=3P RS=42.1M CGSO=1.04M)
.MODEL SW NMOS (LEVEL=3 VTO=0 KP=940M)
.MODEL DCGD D (CJO=78.7P VJ=.41 M=.5)
.MODEL DSUB D (IS=3P BV=399 IBV=1M CJO=53.2P VJ=.8 M=.4 TT=720P)
.MODEL DBE  D (IS=3P)
*  400 Volt  18 Amp  N-Channel IGBT  07-27-1991
.ENDS
**********
*SRC=IGT6E10;IGT6E10;IGBTs;No Diode;500V 18A
*SYM=IGBT
.SUBCKT IGT6E10  10 20 30
*     TERMINALS:  C  G  E
Q1  30  1 10     QOUT
M1   1  2 30 30  MFIN L=1U W=1U
RG  20  2  8.33
CGD  4  1  78.7P
RGD  4  1  10MEG
MGD  4  5  2  2  SW L=1U W=1U
EGD  5  2  2  1  1
DDG  2  6  DCGD
MDG  6  7  1  1  SW L=1U W=1U
EDG  7  1  1  2  1
DDS 30  1  DSUB
VEC  8 10  13.5
DEC  1  8  DBE
.MODEL QOUT PNP (IS=3P BF=13.6 RE=28.8M TF=26.8N TR=850N)
.MODEL MFIN NMOS (LEVEL=3 VMAX=20.8MEG THETA=52.5M VTO=3.5
+ KP=128.4M IS=3P RS=42.1M CGSO=1.04M)
.MODEL SW NMOS (LEVEL=3 VTO=0 KP=940M)
.MODEL DCGD D (CJO=78.7P VJ=.41 M=.5)
.MODEL DSUB D (IS=3P BV=499 IBV=1M CJO=53.2P VJ=.8 M=.4 TT=720P)
.MODEL DBE  D (IS=3P)
*  500 Volt  18 Amp  N-Channel IGBT  07-27-1991
.ENDS
**********
*SRC=IGT6D11;IGT6D11;IGBTs;No Diode;400V 18A
*SYM=IGBT
.SUBCKT IGT6D11  10 20 30
*     TERMINALS:  C  G  E
Q1  30  1 10     QOUT
M1   1  2 30 30  MFIN L=1U W=1U
RG  20  2  8.33
CGD  4  1  78.7P
RGD  4  1  10MEG
MGD  4  5  2  2  SW L=1U W=1U
EGD  5  2  2  1  1
DDG  2  6  DCGD
MDG  6  7  1  1  SW L=1U W=1U
EDG  7  1  1  2  1
DDS 30  1  DSUB
VEC  8 10  13.5
DEC  1  8  DBE
.MODEL QOUT PNP (IS=3P BF=13.6 RE=28.8M TF=17.9N TR=680N)
.MODEL MFIN NMOS (LEVEL=3 VMAX=20.8MEG THETA=52.5M VTO=3.5
+ KP=124.4M IS=3P RS=42.1M CGSO=1.04M)
.MODEL SW NMOS (LEVEL=3 VTO=0 KP=945M)
.MODEL DCGD D (CJO=78.7P VJ=.41 M=.5)
.MODEL DSUB D (IS=3P BV=399 IBV=1M CJO=53.2P VJ=.8 M=.4 TT=576P)
.MODEL DBE  D (IS=3P)
*  400 Volt  18 Amp  N-Channel IGBT  07-27-1991
.ENDS
**********
*SRC=IGT6E11;IGT6E11;IGBTs;No Diode;500V 18A
*SYM=IGBT
.SUBCKT IGT6E11  10 20 30
*     TERMINALS:  C  G  E
Q1  30  1 10     QOUT
M1   1  2 30 30  MFIN L=1U W=1U
RG  20  2  8.33
CGD  4  1  78.7P
RGD  4  1  10MEG
MGD  4  5  2  2  SW L=1U W=1U
EGD  5  2  2  1  1
DDG  2  6  DCGD
MDG  6  7  1  1  SW L=1U W=1U
EDG  7  1  1  2  1
DDS 30  1  DSUB
VEC  8 10  13.5
DEC  1  8  DBE
.MODEL QOUT PNP (IS=3P BF=13.6 RE=28.8M TF=17.9N TR=680N)
.MODEL MFIN NMOS (LEVEL=3 VMAX=20.8MEG THETA=52.5M VTO=3.5
+ KP=124.4M IS=3P RS=42.1M CGSO=1.04M)
.MODEL SW NMOS (LEVEL=3 VTO=0 KP=945M)
.MODEL DCGD D (CJO=78.7P VJ=.41 M=.5)
.MODEL DSUB D (IS=3P BV=499 IBV=1M CJO=53.2P VJ=.8 M=.4 TT=576P)
.MODEL DBE  D (IS=3P)
*  500 Volt  18 Amp  N-Channel IGBT  07-27-1991
.ENDS
**********
*SRC=IGT6D20;IGT6D20;IGBTs;No Diode;400V 32A
*SYM=IGBT
.SUBCKT IGT6D20  10 20 30
*     TERMINALS:  C  G  E
Q1  30  1 10     QOUT
M1   1  2 30 30  MFIN L=1U W=1U
RG  20  2  4.68
CGD  4  1  78.7P
RGD  4  1  10MEG
MGD  4  5  2  2  SW L=1U W=1U
EGD  5  2  2  1  1
DDG  2  6  DCGD
MDG  6  7  1  1  SW L=1U W=1U
EDG  7  1  1  2  1
DDS 30  1  DSUB
VEC  8 10  13.5
DEC  1  8  DBE
.MODEL QOUT PNP (IS=5.33P BF=29.1 RE=12.7M TF=35.8N TR=1.1U)
.MODEL MFIN NMOS (LEVEL=3 VMAX=20.8MEG THETA=52.5M VTO=3.5
+ KP=132.1M IS=5.33P RS=38.4M CGSO=2.29M)
.MODEL SW NMOS (LEVEL=3 VTO=0 KP=1.73)
.MODEL DCGD D (CJO=78.7P VJ=.41 M=.5)
.MODEL DSUB D (IS=5.33P BV=399 IBV=1M CJO=53.2P VJ=.8 M=.4 TT=936P)
.MODEL DBE  D (IS=5.33P)
*  400 Volt  32 Amp  N-Channel IGBT  07-27-1991
.ENDS
**********
*SRC=IGT6E20;IGT6E20;IGBTs;No Diode;500V 32A
*SYM=IGBT
.SUBCKT IGT6E20  10 20 30
*     TERMINALS:  C  G  E
Q1  30  1 10     QOUT
M1   1  2 30 30  MFIN L=1U W=1U
RG  20  2  4.68
CGD  4  1  78.7P
RGD  4  1  10MEG
MGD  4  5  2  2  SW L=1U W=1U
EGD  5  2  2  1  1
DDG  2  6  DCGD
MDG  6  7  1  1  SW L=1U W=1U
EDG  7  1  1  2  1
DDS 30  1  DSUB
VEC  8 10  13.5
DEC  1  8  DBE
.MODEL QOUT PNP (IS=5.33P BF=29.1 RE=12.7M TF=35.8N TR=1.1U)
.MODEL MFIN NMOS (LEVEL=3 VMAX=20.8MEG THETA=52.5M VTO=3.5
+ KP=132.1M IS=5.33P RS=38.4M CGSO=2.29M)
.MODEL SW NMOS (LEVEL=3 VTO=0 KP=1.73)
.MODEL DCGD D (CJO=78.7P VJ=.41 M=.5)
.MODEL DSUB D (IS=5.33P BV=499 IBV=1M CJO=53.2P VJ=.8 M=.4 TT=936P)
.MODEL DBE  D (IS=5.33P)
*  500 Volt  32 Amp  N-Channel IGBT  07-27-1991
.ENDS
**********
*SRC=IGT6D21;IGT6D21;IGBTs;No Diode;400V 32A
*SYM=IGBT
.SUBCKT IGT6D21  10 20 30
*     TERMINALS:  C  G  E
Q1  30  1 10     QOUT
M1   1  2 30 30  MFIN L=1U W=1U
RG  20  2  4.68
CGD  4  1  78.7P
RGD  4  1  10MEG
MGD  4  5  2  2  SW L=1U W=1U
EGD  5  2  2  1  1
DDG  2  6  DCGD
MDG  6  7  1  1  SW L=1U W=1U
EDG  7  1  1  2  1
DDS 30  1  DSUB
VEC  8 10  13.5
DEC  1  8  DBE
.MODEL QOUT PNP (IS=5.33P BF=29.1 RE=12.7M TF=26.8N TR=1.02U)
.MODEL MFIN NMOS (LEVEL=3 VMAX=20.8MEG THETA=52.5M VTO=3.5
+ KP=131.3M IS=5.33P RS=38.4M CGSO=2.29M)
.MODEL SW NMOS (LEVEL=3 VTO=0 KP=1.73)
.MODEL DCGD D (CJO=78.7P VJ=.41 M=.5)
.MODEL DSUB D (IS=5.33P BV=399 IBV=1M CJO=53.2P VJ=.8 M=.4 TT=864P)
.MODEL DBE  D (IS=5.33P)
*  400 Volt  32 Amp  N-Channel IGBT  07-27-1991
.ENDS
**********
*SRC=IGT6E21;IGT6E21;IGBTs;No Diode;500V 32A
*SYM=IGBT
.SUBCKT IGT6E21  10 20 30
*     TERMINALS:  C  G  E
Q1  30  1 10     QOUT
M1   1  2 30 30  MFIN L=1U W=1U
RG  20  2  4.68
CGD  4  1  78.7P
RGD  4  1  10MEG
MGD  4  5  2  2  SW L=1U W=1U
EGD  5  2  2  1  1
DDG  2  6  DCGD
MDG  6  7  1  1  SW L=1U W=1U
EDG  7  1  1  2  1
DDS 30  1  DSUB
VEC  8 10  13.5
DEC  1  8  DBE
.MODEL QOUT PNP (IS=5.33P BF=29.1 RE=12.7M TF=26.8N TR=1.02U)
.MODEL MFIN NMOS (LEVEL=3 VMAX=20.8MEG THETA=52.5M VTO=3.5
+ KP=131.3M IS=5.33P RS=38.4M CGSO=2.29M)
.MODEL SW NMOS (LEVEL=3 VTO=0 KP=1.73)
.MODEL DCGD D (CJO=78.7P VJ=.41 M=.5)
.MODEL DSUB D (IS=5.33P BV=499 IBV=1M CJO=53.2P VJ=.8 M=.4 TT=864P)
.MODEL DBE  D (IS=5.33P)
*  500 Volt  32 Amp  N-Channel IGBT  07-27-1991
.ENDS
**********
*SRC=IGT8D20;IGT8D20;IGBTs;No Diode;400V 32A
*SYM=IGBT
.SUBCKT IGT8D20  10 20 30
*     TERMINALS:  C  G  E
Q1  30  1 10     QOUT
M1   1  2 30 30  MFIN L=1U W=1U
RG  20  2  4.68
CGD  4  1  78.7P
RGD  4  1  10MEG
MGD  4  5  2  2  SW L=1U W=1U
EGD  5  2  2  1  1
DDG  2  6  DCGD
MDG  6  7  1  1  SW L=1U W=1U
EDG  7  1  1  2  1
DDS 30  1  DSUB
VEC  8 10  13.5
DEC  1  8  DBE
.MODEL QOUT PNP (IS=5.33P BF=29.1 RE=12.7M TF=35.8N TR=1.1U)
.MODEL MFIN NMOS (LEVEL=3 VMAX=20.8MEG THETA=52.5M VTO=3.5
+ KP=133.1M IS=5.33P RS=38.4M CGSO=2.29M)
.MODEL SW NMOS (LEVEL=3 VTO=0 KP=1.73)
.MODEL DCGD D (CJO=78.7P VJ=.41 M=.5)
.MODEL DSUB D (IS=5.33P BV=399 IBV=1M CJO=53.2P VJ=.8 M=.4 TT=936P)
.MODEL DBE  D (IS=5.33P)
*  400 Volt  32 Amp  N-Channel IGBT  07-27-1991
.ENDS
**********
*SRC=IGT8E20;IGT8E20;IGBTs;No Diode;500V 32A
*SYM=IGBT
.SUBCKT IGT8E20  10 20 30
*     TERMINALS:  C  G  E
Q1  30  1 10     QOUT
M1   1  2 30 30  MFIN L=1U W=1U
RG  20  2  4.68
CGD  4  1  78.7P
RGD  4  1  10MEG
MGD  4  5  2  2  SW L=1U W=1U
EGD  5  2  2  1  1
DDG  2  6  DCGD
MDG  6  7  1  1  SW L=1U W=1U
EDG  7  1  1  2  1
DDS 30  1  DSUB
VEC  8 10  13.5
DEC  1  8  DBE
.MODEL QOUT PNP (IS=5.33P BF=29.1 RE=12.7M TF=35.8N TR=1.1U)
.MODEL MFIN NMOS (LEVEL=3 VMAX=20.8MEG THETA=52.5M VTO=3.5
+ KP=133.1M IS=5.33P RS=38.4M CGSO=2.29M)
.MODEL SW NMOS (LEVEL=3 VTO=0 KP=1.73)
.MODEL DCGD D (CJO=78.7P VJ=.41 M=.5)
.MODEL DSUB D (IS=5.33P BV=499 IBV=1M CJO=53.2P VJ=.8 M=.4 TT=936P)
.MODEL DBE  D (IS=5.33P)
*  500 Volt  32 Amp  N-Channel IGBT  07-27-1991
.ENDS
**********
*SRC=IGT8D21;IGT8D21;IGBTs;No Diode;400V 32A
*SYM=IGBT
.SUBCKT IGT8D21  10 20 30
*     TERMINALS:  C  G  E
Q1  30  1 10     QOUT
M1   1  2 30 30  MFIN L=1U W=1U
RG  20  2  4.68
CGD  4  1  78.7P
RGD  4  1  10MEG
MGD  4  5  2  2  SW L=1U W=1U
EGD  5  2  2  1  1
DDG  2  6  DCGD
MDG  6  7  1  1  SW L=1U W=1U
EDG  7  1  1  2  1
DDS 30  1  DSUB
VEC  8 10  13.5
DEC  1  8  DBE
.MODEL QOUT PNP (IS=5.33P BF=29.1 RE=14.4M TF=26.8N TR=1.02U)
.MODEL MFIN NMOS (LEVEL=3 VMAX=20.8MEG THETA=52.5M VTO=3.5
+ KP=132.5M IS=5.33P RS=43.4M CGSO=2.29M)
.MODEL SW NMOS (LEVEL=3 VTO=0 KP=1.73)
.MODEL DCGD D (CJO=78.7P VJ=.41 M=.5)
.MODEL DSUB D (IS=5.33P BV=399 IBV=1M CJO=53.2P VJ=.8 M=.4 TT=864P)
.MODEL DBE  D (IS=5.33P)
*  400 Volt  32 Amp  N-Channel IGBT  07-27-1991
.ENDS
**********
*SRC=IGT8E21;IGT8E21;IGBTs;No Diode;500V 32A
*SYM=IGBT
.SUBCKT IGT8E21  10 20 30
*     TERMINALS:  C  G  E
Q1  30  1 10     QOUT
M1   1  2 30 30  MFIN L=1U W=1U
RG  20  2  4.68
CGD  4  1  78.7P
RGD  4  1  10MEG
MGD  4  5  2  2  SW L=1U W=1U
EGD  5  2  2  1  1
DDG  2  6  DCGD
MDG  6  7  1  1  SW L=1U W=1U
EDG  7  1  1  2  1
DDS 30  1  DSUB
VEC  8 10  13.5
DEC  1  8  DBE
.MODEL QOUT PNP (IS=5.33P BF=29.1 RE=14.4M TF=26.8N TR=1.02U)
.MODEL MFIN NMOS (LEVEL=3 VMAX=20.8MEG THETA=52.5M VTO=3.5
+ KP=132.5M IS=5.33P RS=43.4M CGSO=2.29M)
.MODEL SW NMOS (LEVEL=3 VTO=0 KP=1.73)
.MODEL DCGD D (CJO=78.7P VJ=.41 M=.5)
.MODEL DSUB D (IS=5.33P BV=499 IBV=1M CJO=53.2P VJ=.8 M=.4 TT=864P)
.MODEL DBE  D (IS=5.33P)
*  500 Volt  32 Amp  N-Channel IGBT  07-27-1991
.ENDS
**********
*SRC=IGTH10N40;IGTH104;IGBTs;No Diode;400V 10A
*SYM=IGBT
.SUBCKT IGTH104   10 20 30
*     TERMINALS:  C  G  E
Q1  30  1 10     QOUT
M1   1  2 30 30  MFIN L=1U W=1U
RG  20  2  15
CGD  4  1  58.2P
RGD  4  1  10MEG
MGD  4  5  2  2  SW L=1U W=1U
EGD  5  2  2  1  1
DDG  2  6  DCGD
MDG  6  7  1  1  SW L=1U W=1U
EDG  7  1  1  2  1
DDS 30  1  DSUB
VEC  8 10  3.5
DEC  1  8  DBE
.MODEL QOUT PNP (IS=2.18P BF=3.65 RE=32.7M TF=5.37N TR=510N)
.MODEL MFIN NMOS (LEVEL=3 VMAX=15.6MEG THETA=70M VTO=3.0
+ KP=.591 IS=2.18P RS=15.2M CGSO=512U)
.MODEL SW NMOS (LEVEL=3 VTO=0 KP=.01)
.MODEL DCGD D (CJO=58.2P VJ=.41 M=.5)
.MODEL DSUB D (IS=2.18P BV=399 IBV=1M CJO=39.3P VJ=.8 M=.4 TT=432P)
.MODEL DBE  D (IS=2.18P)
*  400 Volt  10 Amp  N-Channel IGBT  07-27-1991
.ENDS
**********
*SRC=IGTH10N50;IGTH105;IGBTs;No Diode;500V 10A
*SYM=IGBT
.SUBCKT IGTH105   10 20 30
*     TERMINALS:  C  G  E
Q1  30  1 10     QOUT
M1   1  2 30 30  MFIN L=1U W=1U
RG  20  2  15
CGD  4  1  58.2P
RGD  4  1  10MEG
MGD  4  5  2  2  SW L=1U W=1U
EGD  5  2  2  1  1
DDG  2  6  DCGD
MDG  6  7  1  1  SW L=1U W=1U
EDG  7  1  1  2  1
DDS 30  1  DSUB
VEC  8 10  3.5
DEC  1  8  DBE
.MODEL QOUT PNP (IS=2.18P BF=3.65 RE=32.7M TF=5.37N TR=510N)
.MODEL MFIN NMOS (LEVEL=3 VMAX=15.6MEG THETA=70M VTO=3.0
+ KP=.591 IS=2.18P RS=15.2M CGSO=512U)
.MODEL SW NMOS (LEVEL=3 VTO=0 KP=.01)
.MODEL DCGD D (CJO=58.2P VJ=.41 M=.5)
.MODEL DSUB D (IS=2.18P BV=499 IBV=1M CJO=39.3P VJ=.8 M=.4 TT=432P)
.MODEL DBE  D (IS=2.18P)
*  500 Volt  10 Amp  N-Channel IGBT  07-27-1991
.ENDS
**********
*SRC=IGTH10N40D;IGTH104D;IGBTs;w/Diode;400V 10A
*SYM=IGBT
.SUBCKT IGTH104D  10 20 30
*     TERMINALS:  C  G  E
Q1  30  1 10     QOUT
M1   1  2 30 30  MFIN L=1U W=1U
RG  20  2  15
CGD  4  1  58.2P
RGD  4  1  10MEG
MGD  4  5  2  2  SW L=1U W=1U
EGD  5  2  2  1  1
DDG  2  6  DCGD
MDG  6  7  1  1  SW L=1U W=1U
EDG  7  1  1  2  1
DDS 30  1  DSUB
VEC  8 10  3.5
DEC  1  8  DBE
DFW  30 10 GTH4D
.MODEL QOUT PNP (IS=2.18P BF=3.65 RE=32.7M TF=5.37N TR=510N)
.MODEL MFIN NMOS (LEVEL=3 VMAX=15.6MEG THETA=70M VTO=3.0
+ KP=.592 IS=2.18P RS=15.2M CGSO=512U)
.MODEL SW NMOS (LEVEL=3 VTO=0 KP=.011)
.MODEL DCGD D (CJO=58.2P VJ=.41 M=.5)
.MODEL DSUB D (IS=2.18P BV=399 IBV=1M CJO=39.3P VJ=.8 M=.4 TT=432P)
.MODEL DBE  D (IS=2.18P)
.MODEL GTH4D D (IS=15.5U RS=14.4M N=3.01 CJO=412P VJ=.75 M=.333 TT=57.6U)
*  400 Volt  10 Amp  N-Channel IGBT  07-27-1991
.ENDS
**********
*SRC=IGTH10N50D;IGTH105D;IGBTs;w/Diode;500V 10A
*SYM=IGBT
.SUBCKT IGTH105D  10 20 30
*     TERMINALS:  C  G  E
Q1  30  1 10     QOUT
M1   1  2 30 30  MFIN L=1U W=1U
RG  20  2  15
CGD  4  1  58.2P
RGD  4  1  10MEG
MGD  4  5  2  2  SW L=1U W=1U
EGD  5  2  2  1  1
DDG  2  6  DCGD
MDG  6  7  1  1  SW L=1U W=1U
EDG  7  1  1  2  1
DDS 30  1  DSUB
VEC  8 10  3.5
DEC  1  8  DBE
DFW  30 10 GTH5D
.MODEL QOUT PNP (IS=2.18P BF=3.65 RE=32.7M TF=5.37N TR=510N)
.MODEL MFIN NMOS (LEVEL=3 VMAX=15.6MEG THETA=70M VTO=3.0
+ KP=.592 IS=2.18P RS=15.2M CGSO=512U)
.MODEL SW NMOS (LEVEL=3 VTO=0 KP=.011)
.MODEL DCGD D (CJO=58.2P VJ=.41 M=.5)
.MODEL DSUB D (IS=2.18P BV=499 IBV=1M CJO=39.3P VJ=.8 M=.4 TT=432P)
.MODEL DBE  D (IS=2.18P)
.MODEL GTH5D D (IS=15.5U RS=14.4M N=3.01 CJO=412P VJ=.75 M=.333 TT=57.6U)
*  500 Volt  10 Amp  N-Channel IGBT  07-27-1991
.ENDS
**********
*SRC=IGTH20N40;IGTH204;IGBTs;No Diode;400V 20A
*SYM=IGBT
.SUBCKT IGTH204 10 20 30
*     TERMINALS:  C  G  E
Q1  30  1 10     QOUT
M1   1  2 30 30  MFIN L=1U W=1U
RG  20  2  7.5
CGD  4  1  164P
RGD  4  1  10MEG
MGD  4  5  2  2  SW L=1U W=1U
EGD  5  2  2  1  1
DDG  2  6  DCGD
MDG  6  7  1  1  SW L=1U W=1U
EDG  7  1  1  2  1
DDS 30  1  DSUB
VEC  8 10  3.5
DEC  1  8  DBE
.MODEL QOUT PNP (IS=4.37P BF=3.65 RE=16.3M TF=7.16N TR=510N)
.MODEL MFIN NMOS (LEVEL=3 VMAX=15.6MEG THETA=70M VTO=3.0
+ KP=1.293 IS=4.37P RS=7.61M CGSO=1.12M)
.MODEL SW NMOS (LEVEL=3 VTO=0 KP=13.1M)
.MODEL DCGD D (CJO=164P VJ=.41 M=.5)
.MODEL DSUB D (IS=4.37P BV=399 IBV=1M CJO=111P VJ=.8 M=.4 TT=432P)
.MODEL DBE  D (IS=4.37P)
*  400 Volt  20 Amp  N-Channel IGBT  07-27-1991
.ENDS
**********
*SRC=IGTH20N50;IGTH205;IGBTs;No Diode;500V 20A
*SYM=IGBT
.SUBCKT IGTH205 10 20 30
*     TERMINALS:  C  G  E
Q1  30  1 10     QOUT
M1   1  2 30 30  MFIN L=1U W=1U
RG  20  2  7.5
CGD  4  1  164P
RGD  4  1  10MEG
MGD  4  5  2  2  SW L=1U W=1U
EGD  5  2  2  1  1
DDG  2  6  DCGD
MDG  6  7  1  1  SW L=1U W=1U
EDG  7  1  1  2  1
DDS 30  1  DSUB
VEC  8 10  3.5
DEC  1  8  DBE
.MODEL QOUT PNP (IS=4.37P BF=3.65 RE=16.3M TF=7.16N TR=510N)
.MODEL MFIN NMOS (LEVEL=3 VMAX=15.6MEG THETA=70M VTO=3.0
+ KP=1.293 IS=4.37P RS=7.61M CGSO=1.12M)
.MODEL SW NMOS (LEVEL=3 VTO=0 KP=13.1M)
.MODEL DCGD D (CJO=164P VJ=.41 M=.5)
.MODEL DSUB D (IS=4.37P BV=499 IBV=1M CJO=111P VJ=.8 M=.4 TT=432P)
.MODEL DBE  D (IS=4.37P)
*  500 Volt  20 Amp  N-Channel IGBT  07-27-1991
.ENDS
**********
*SRC=IGTH20N40D;IGTH204D;IGBTs;No Diode;400V 20A
*SYM=IGBT
.SUBCKT IGTH204D 10 20 30
*     TERMINALS:  C  G  E
Q1  30  1 10     QOUT
M1   1  2 30 30  MFIN L=1U W=1U
RG  20  2  7.5
CGD  4  1  164P
RGD  4  1  10MEG
MGD  4  5  2  2  SW L=1U W=1U
EGD  5  2  2  1  1
DDG  2  6  DCGD
MDG  6  7  1  1  SW L=1U W=1U
EDG  7  1  1  2  1
DDS 30  1  DSUB
VEC  8 10  3.5
DEC  1  8  DBE
DFW  30 10 GTH4D
.MODEL QOUT PNP (IS=4.37P BF=3.65 RE=16.3M TF=7.16N TR=510N)
.MODEL MFIN NMOS (LEVEL=3 VMAX=15.6MEG THETA=70M VTO=3.0
+ KP=1.293 IS=4.37P RS=7.61M CGSO=1.12M)
.MODEL SW NMOS (LEVEL=3 VTO=0 KP=13.1M)
.MODEL DCGD D (CJO=164P VJ=.41 M=.5)
.MODEL DSUB D (IS=4.37P BV=399 IBV=1M CJO=111P VJ=.8 M=.4 TT=432P)
.MODEL DBE  D (IS=4.37P)
.MODEL GTH4D D (IS=15.5U RS=14.4M N=3.01 CJO=412P VJ=.75 M=.333 TT=57.6U)
*  400 Volt  20 Amp  N-Channel IGBT  07-27-1991
.ENDS
**********
*SRC=IGTH20N50D;IGTH205D;IGBTs;w/Diode;500V 20A
*SYM=IGBT
.SUBCKT IGTH205D 10 20 30
*     TERMINALS:  C  G  E
Q1  30  1 10     QOUT
M1   1  2 30 30  MFIN L=1U W=1U
RG  20  2  7.5
CGD  4  1  164P
RGD  4  1  10MEG
MGD  4  5  2  2  SW L=1U W=1U
EGD  5  2  2  1  1
DDG  2  6  DCGD
MDG  6  7  1  1  SW L=1U W=1U
EDG  7  1  1  2  1
DDS 30  1  DSUB
VEC  8 10  3.5
DEC  1  8  DBE
DFW  30 10 GTH5D
.MODEL QOUT PNP (IS=4.37P BF=3.65 RE=16.3M TF=7.16N TR=510N)
.MODEL MFIN NMOS (LEVEL=3 VMAX=15.6MEG THETA=70M VTO=3
+ KP=.263 IS=4.37P RS=7.61M CGSO=1.12M)
.MODEL SW NMOS (LEVEL=3 VTO=0 KP=13.1M)
.MODEL DCGD D (CJO=164P VJ=.41 M=.5)
.MODEL DSUB D (IS=4.37P BV=499 IBV=1M CJO=111P VJ=.8 M=.4 TT=432P)
.MODEL DBE  D (IS=4.37P)
.MODEL GTH5D D (IS=15.5U RS=14.4M N=3.01 CJO=412P VJ=.75 M=.333 TT=57.6U)
*  500 Volt  20 Amp  N-Channel IGBT  07-27-1991
.ENDS
**********
*SRC=2N6975;IN6975;IGBTs;No Diode;400V 5A
*SYM=IGBT
.SUBCKT IN6975   10 20 30
*     TERMINALS:  C  G  E
Q1  30  1 10     QOUT
M1   1  2 30 30  MFIN L=1U W=1U
RG  20  2  30
CGD  4  1  71.6P
RGD  4  1  10MEG
MGD  4  5  2  2  SW L=1U W=1U
EGD  5  2  2  1  1
DDG  2  6  DCGD
MDG  6  7  1  1  SW L=1U W=1U
EDG  7  1  1  2  1
DDS 30  1  DSUB
VEC  8 10  3.5
DEC  1  8  DBE
.MODEL QOUT PNP (IS=1.09P BF=3.65 RE=36.9M TF=7.16N TR=510N)
.MODEL MFIN NMOS (LEVEL=3 VMAX=15.6MEG THETA=70M VTO=3
+ KP=.65 IS=1.09P RS=17.1M CGSO=491U)
.MODEL SW NMOS (LEVEL=3 VTO=0 KP=20M)
.MODEL DCGD D (CJO=71.6P VJ=.41 M=.5)
.MODEL DSUB D (IS=1.09P BV=399 IBV=1M CJO=48.4P VJ=.8 M=.4 TT=432P)
.MODEL DBE  D (IS=1.09P)
*  400 Volt  5 Amp  N-Channel IGBT  07-27-1991
.ENDS
**********
*SRC=2N6976;IN6976;IGBTs;No Diode;500V 5A
*SYM=IGBT
.SUBCKT IN6976   10 20 30
*     TERMINALS:  C  G  E
Q1  30  1 10     QOUT
M1   1  2 30 30  MFIN L=1U W=1U
RG  20  2  30
CGD  4  1  71.6P
RGD  4  1  10MEG
MGD  4  5  2  2  SW L=1U W=1U
EGD  5  2  2  1  1
DDG  2  6  DCGD
MDG  6  7  1  1  SW L=1U W=1U
EDG  7  1  1  2  1
DDS 30  1  DSUB
VEC  8 10  3.5
DEC  1  8  DBE
.MODEL QOUT PNP (IS=1.09P BF=3.65 RE=36.9M TF=7.16N TR=510N)
.MODEL MFIN NMOS (LEVEL=3 VMAX=15.6MEG THETA=70M VTO=3
+ KP=.56 IS=1.09P RS=17.1M CGSO=491U)
.MODEL SW NMOS (LEVEL=3 VTO=0 KP=19M)
.MODEL DCGD D (CJO=71.6P VJ=.41 M=.5)
.MODEL DSUB D (IS=1.09P BV=499 IBV=1M CJO=48.4P VJ=.8 M=.4 TT=432P)
.MODEL DBE  D (IS=1.09P)
*  500 Volt  5 Amp  N-Channel IGBT  07-27-1991
.ENDS
**********
*SRC=APT50G60BN;APT50G60;IGBTs;No Diode;600V 50A
*SYM=IGBT
.SUBCKT APT50G60 10 20 30
*     TERMINALS:  C  G  E
Q1  30  1 10     QOUT
M1   1  2 30 30  MFIN L=1U W=1U
RG  20  2  3
CGD  4  1  630P
RGD  4  1  10MEG
MGD  4  5  2  2  SW L=1U W=1U
EGD  5  2  2  1  1
DDG  2  6  DCGD
MDG  6  7  1  1  SW L=1U W=1U
EDG  7  1  1  2  1
DDS 30  1  DSUB
VEC  8 10  23.5
DEC  1  8  DBE
.MODEL QOUT PNP (IS=8.33P BF=2.1 RE=11.6M TF=35.8N TR=1.02U)
.MODEL MFIN NMOS (LEVEL=1 VTO=3.9
+ KP=.888 IS=8.33P RS=3.61M CGSO=2.02M)
.MODEL SW NMOS (LEVEL=1 VTO=0 KP=229.4M)
.MODEL DCGD D (CJO=630P VJ=.41 M=.5)
.MODEL DSUB D (IS=8.33P BV=599 IBV=1M CJO=321P VJ=.8 M=.4 TT=864P)
.MODEL DBE  D (IS=8.33P)
*  600 Volt  50 Amp  N-Channel IGBT  07-27-1991
.ENDS
**********
*SRC=APT35G60BN;APT35G60;IGBTs;No Diode;600V 35A
*SYM=IGBT
.SUBCKT APT35G60 10 20 30
*     TERMINALS:  C  G  E
Q1  30  1 10     QOUT
M1   1  2 30 30  MFIN L=1U W=1U
RG  20  2  4.28
CGD  4  1  354P
RGD  4  1  10MEG
MGD  4  5  2  2  SW L=1U W=1U
EGD  5  2  2  1  1
DDG  2  6  DCGD
MDG  6  7  1  1  SW L=1U W=1U
EDG  7  1  1  2  1
DDS 30  1  DSUB
VEC  8 10  23.5
DEC  1  8  DBE
.MODEL QOUT PNP (IS=5.83P BF=2.1 RE=19.3M TF=35.8N TR=1.02U)
.MODEL MFIN NMOS (LEVEL=1 VTO=3.8
+ KP=.591 IS=5.83P RS=6M CGSO=1.05M)
.MODEL SW NMOS (LEVEL=1 VTO=0 KP=134.5M)
.MODEL DCGD D (CJO=354P VJ=.41 M=.5)
.MODEL DSUB D (IS=5.83P BV=599 IBV=1M CJO=180P VJ=.8 M=.4 TT=864P)
.MODEL DBE  D (IS=5.83P)
*  600 Volt  35 Amp  N-Channel IGBT  07-27-1991
.ENDS
**********
*SRC=APT45G100BN;APT45G10;IGBTs;No Diode;1000V 45A
*SYM=IGBT
.SUBCKT APT45G10 10 20 30
*     TERMINALS:  C  G  E
Q1  30  1 10     QOUT
M1   1  2 30 30  MFIN L=1U W=1U
RG  20  2  3.33
CGD  4  1  630P
RGD  4  1  10MEG
MGD  4  5  2  2  SW L=1U W=1U
EGD  5  2  2  1  1
DDG  2  6  DCGD
MDG  6  7  1  1  SW L=1U W=1U
EDG  7  1  1  2  1
DDS 30  1  DSUB
VEC  8 10  23.5
DEC  1  8  DBE
.MODEL QOUT PNP (IS=7.5P BF=2.1 RE=16.8M TF=35.8N TR=1.02U)
.MODEL MFIN NMOS (LEVEL=1 VTO=4.0
+ KP=.889 IS=7.5P RS=5.21M CGSO=2.02M)
.MODEL SW NMOS (LEVEL=1 VTO=0 KP=244.4M)
.MODEL DCGD D (CJO=630P VJ=.41 M=.5)
.MODEL DSUB D (IS=7.5P BV=999 IBV=1M CJO=321P VJ=.8 M=.4 TT=864P)
.MODEL DBE  D (IS=7.5P)
*  1000 Volt  45 Amp  N-Channel IGBT  07-27-1991
.ENDS
**********
*SRC=APT30G100BN;APT30G10;IGBTs;No Diode;100V 30A
*SYM=IGBT
.SUBCKT APT30G10 10 20 30
*     TERMINALS:  C  G  E
Q1  30  1 10     QOUT
M1   1  2 30 30  MFIN L=1U W=1U
RG  20  2  5
CGD  4  1  393P
RGD  4  1  10MEG
MGD  4  5  2  2  SW L=1U W=1U
EGD  5  2  2  1  1
DDG  2  6  DCGD
MDG  6  7  1  1  SW L=1U W=1U
EDG  7  1  1  2  1
DDS 30  1  DSUB
VEC  8 10  23.5
DEC  1  8  DBE
.MODEL QOUT PNP (IS=5P BF=2.1 RE=26.6M TF=35.8N TR=1.02U)
.MODEL MFIN NMOS (LEVEL=1 VTO=4.0
+ KP=.593 IS=5P RS=8.26M CGSO=1.05M)
.MODEL SW NMOS (LEVEL=1 VTO=0 KP=329.6M)
.MODEL DCGD D (CJO=393P VJ=.41 M=.5)
.MODEL DSUB D (IS=5P BV=999 IBV=1M CJO=200P VJ=.8 M=.4 TT=864P)
.MODEL DBE  D (IS=5P)
*  1000 Volt  30 Amp  N-Channel IGBT  07-27-1991
.ENDS
**********
*SRC=APT40G100AN;APT40G10;IGBTs;No Diode;1000V 40A
*SYM=IGBT
.SUBCKT APT40G10 10 20 30
*     TERMINALS:  C  G  E
Q1  30  1 10     QOUT
M1   1  2 30 30  MFIN L=1U W=1U
RG  20  2  3.75
CGD  4  1  630P
RGD  4  1  10MEG
MGD  4  5  2  2  SW L=1U W=1U
EGD  5  2  2  1  1
DDG  2  6  DCGD
MDG  6  7  1  1  SW L=1U W=1U
EDG  7  1  1  2  1
DDS 30  1  DSUB
VEC  8 10  23.5
DEC  1  8  DBE
.MODEL QOUT PNP (IS=6.67P BF=2.1 RE=18.4M TF=35.8N TR=1.02U)
.MODEL MFIN NMOS (LEVEL=1 VTO=4.0
+ KP=.69 IS=6.67P RS=5.71M CGSO=2.02M)
.MODEL SW NMOS (LEVEL=1 VTO=0 KP=339.5M)
.MODEL DCGD D (CJO=630P VJ=.41 M=.5)
.MODEL DSUB D (IS=6.67P BV=999 IBV=1M CJO=321P VJ=.8 M=.4 TT=864P)
.MODEL DBE  D (IS=6.67P)
*  1000 Volt  40 Amp  N-Channel IGBT  07-27-1991
.ENDS
**********
*SRC=APT90G200EFN;APT90G20;IGBTs;No Diode;900V 200A
*SYM=IGBT
.SUBCKT APT90G20 10 20 30
*     TERMINALS:  C  G  E
Q1  30  1 10     QOUT
M1   1  2 30 30  MFIN L=1U W=1U
RG  20  2  .75
CGD  4  1  10.2N
RGD  4  1  10MEG
MGD  4  5  2  2  SW L=1U W=1U
EGD  5  2  2  1  1
DDG  2  6  DCGD
MDG  6  7  1  1  SW L=1U W=1U
EDG  7  1  1  2  1
DDS 30  1  DSUB
VEC  8 10  23.5
DEC  1  8  DBE