**********
* Copyright Intusoft 1996-1997
* All Rights Reserved
**********
**********
*SRC=CM15TF12H;CM15TF12H;IGBTs;w/Diode;Powerex 600V 15A
*SYM=IGBT
.SUBCKT CM15TF12H 71 72 74
*     TERMINALS:  C  G  E
Q1  83 81 85     QOUT ;OFF
M1  81 82 83 83  MFIN L=1U W=1U
DSD 83 81  DO
DBE 85 81  DE
RC  85 71  31.5M
RE  83 73  3.15M
RG  72 82  10
CGE 82 83  880P
EGD 91  0 82 81  1
VFB 93  0  0
FFB 82 81  VFB  1
CGD 92 93  3.4N
R1  92  0  1
D1  91 92  DLIM
DHV 94 93  DR
R2  91 94  1
D2  94  0  DLIM
LE  73 74  7.5N
DLV 94 95  DR 13
RLV 95  0  1
ESD 96 93  POLY(1) 83 81 19  1
MLV 95 96 93 93  SW
DFW 74 71 CM15TF1D
.MODEL CM15TF1D D (IS=21.3N RS=2.8M N=1.7 BV=600 IBV=10U
+ CJO=618P VJ=0.75 M=0.333 TT=158N)
.MODEL SW NMOS (LEVEL=3 VTO=0 KP=5)
.MODEL QOUT PNP (IS=2.64P NF=1.2 BF=5.1 CJE=4.75N TF=14.9N XTB=1.3)
.MODEL MFIN NMOS (LEVEL=3 VMAX=400K THETA=40M ETA=2.01M VTO=6 KP=0.785)
.MODEL DR D (IS=264F CJO=243P VJ=1 M=0.82)
.MODEL DO D (IS=264F BV=599 CJO=1.35N VJ=1 M=0.7)
.MODEL DE D (IS=264F BV=15 N=2)
.MODEL DLIM D (IS=100N)
.ENDS
**********
*SRC=CM20TF12H;CM20TF12H;IGBTs;w/Diode;Powerex 600V 20A
*SYM=IGBT
.SUBCKT CM20TF12H 71 72 74
*     TERMINALS:  C  G  E
Q1  83 81 85     QOUT ;OFF
M1  81 82 83 83  MFIN L=1U W=1U
DSD 83 81  DO
DBE 85 81  DE
RC  85 71  23.6M
RE  83 73  2.36M
RG  72 82  7.5
CGE 82 83  1.17N
EGD 91  0 82 81  1
VFB 93  0  0
FFB 82 81  VFB  1
CGD 92 93  5.1N
R1  92  0  1
D1  91 92  DLIM
DHV 94 93  DR
R2  91 94  1
D2  94  0  DLIM
LE  73 74  7.5N
DLV 94 95  DR 13
RLV 95  0  1
ESD 96 93  POLY(1) 83 81 19  1
MLV 95 96 93 93  SW
DFW 74 71 CM20TF1D
.MODEL CM20TF1D D (IS=28.4N RS=2.1M N=1.7 BV=600 IBV=10U
+ CJO=823P VJ=0.75 M=0.333 TT=158N)
.MODEL SW NMOS (LEVEL=3 VTO=0 KP=5)
.MODEL QOUT PNP (IS=3.52P NF=1.2 BF=5.1 CJE=7.03N TF=17.2N XTB=1.3)
.MODEL MFIN NMOS (LEVEL=3 VMAX=400K THETA=40M ETA=2.01M VTO=6 KP=1.05)
.MODEL DR D (IS=352F CJO=364P VJ=1 M=0.82)
.MODEL DO D (IS=352F BV=599 CJO=1.93N VJ=1 M=0.7)
.MODEL DE D (IS=352F BV=15 N=2)
.MODEL DLIM D (IS=100N)
.ENDS
**********
*SRC=CM30TF12H;CM30TF12H;IGBTs;w/Diode;Powerex 600V 30A
*SYM=IGBT
.SUBCKT CM30TF12H 71 72 74
*     TERMINALS:  C  G  E
Q1  83 81 85     QOUT ;OFF
M1  81 82 83 83  MFIN L=1U W=1U
DSD 83 81  DO
DBE 85 81  DE
RC  85 71  15.7M
RE  83 73  1.57M
RG  72 82  96.3
CGE 82 83  568P
EGD 91  0 82 81  1
VFB 93  0  0
FFB 82 81  VFB  1
CGD 92 93  289P
R1  92  0  1
D1  91 92  DLIM
DHV 94 93  DR
R2  91 94  1
D2  94  0  DLIM
LE  73 74  7.5N
DLV 94 95  DR 13
RLV 95  0  1
ESD 96 93  POLY(1) 83 81 19  1
MLV 95 96 93 93  SW
DFW 74 71 CM30TF1D
.MODEL CM30TF1D D (IS=42.6N RS=1.4M N=1.7 BV=600 IBV=10U
+ CJO=1.23N VJ=0.75 M=0.333 TT=158N)
.MODEL SW NMOS (LEVEL=3 VTO=0 KP=5)
.MODEL QOUT PNP (IS=5.27P NF=1.2 BF=5.1 CJE=949P TF=21.1N XTB=1.3)
.MODEL MFIN NMOS (LEVEL=3 VMAX=400K THETA=40M ETA=2.01M VTO=6 KP=1.57)
.MODEL DR D (IS=527F CJO=20.6P VJ=1 M=0.82)
.MODEL DO D (IS=527F BV=599 CJO=660P VJ=1 M=0.7)
.MODEL DE D (IS=527F BV=15 N=2)
.MODEL DLIM D (IS=100N)
.ENDS
**********
*SRC=CM50TF12H;CM50TF12H;IGBTs;w/Diode;Powerex 600V 50A
*SYM=IGBT
.SUBCKT CM50TF12H 71 72 74
*     TERMINALS:  C  G  E
Q1  83 81 85     QOUT ;OFF
M1  81 82 83 83  MFIN L=1U W=1U
DSD 83 81  DO
DBE 85 81  DE
RC  85 71  9.44M
RE  83 73  944U
RG  72 82  3
CGE 82 83  2.9N
EGD 91  0 82 81  1
VFB 93  0  0
FFB 82 81  VFB  1
CGD 92 93  17N
R1  92  0  1
D1  91 92  DLIM
DHV 94 93  DR
R2  91 94  1
D2  94  0  DLIM
LE  73 74  7.5N
DLV 94 95  DR 13
RLV 95  0  1
ESD 96 93  POLY(1) 83 81 19  1
MLV 95 96 93 93  SW
DFW 74 71 CM50TF1D
.MODEL CM50TF1D D (IS=71N RS=840U N=1.7 BV=600 IBV=10U
+ CJO=2.06N VJ=0.75 M=0.333 TT=158N)
.MODEL SW NMOS (LEVEL=3 VTO=0 KP=5)
.MODEL QOUT PNP (IS=8.79P NF=1.2 BF=5.1 CJE=21.5N TF=27.2N XTB=1.3)
.MODEL MFIN NMOS (LEVEL=3 VMAX=400K THETA=40M ETA=2.01M VTO=6 KP=2.62)
.MODEL DR D (IS=879F CJO=1.21N VJ=1 M=0.82)
.MODEL DO D (IS=879F BV=599 CJO=4.55N VJ=1 M=0.7)
.MODEL DE D (IS=879F BV=15 N=2)
.MODEL DLIM D (IS=100N)
.ENDS
**********
*SRC=CM75TF12H;CM75TF12H;IGBTs;w/Diode;Powerex 600V 75A
*SYM=IGBT
.SUBCKT CM75TF12H 71 72 74
*     TERMINALS:  C  G  E
Q1  83 81 85     QOUT ;OFF
M1  81 82 83 83  MFIN L=1U W=1U
DSD 83 81  DO
DBE 85 81  DE
RC  85 71  6.29M
RE  83 73  629U
RG  72 82  2
CGE 82 83  4.36N
EGD 91  0 82 81  1
VFB 93  0  0
FFB 82 81  VFB  1
CGD 92 93  23.8N
R1  92  0  1
D1  91 92  DLIM
DHV 94 93  DR
R2  91 94  1
D2  94  0  DLIM
LE  73 74  7.5N
DLV 94 95  DR 13
RLV 95  0  1
ESD 96 93  POLY(1) 83 81 19  1
MLV 95 96 93 93  SW
DFW 74 71 CM75TF1D
.MODEL CM75TF1D D (IS=107N RS=560U N=1.7 BV=600 IBV=10U
+ CJO=3.08N VJ=0.75 M=0.333 TT=158N)
.MODEL SW NMOS (LEVEL=3 VTO=0 KP=5)
.MODEL QOUT PNP (IS=13.2P NF=1.2 BF=5.1 CJE=30.6N TF=33.4N XTB=1.3)
.MODEL MFIN NMOS (LEVEL=3 VMAX=400K THETA=40M ETA=2.01M VTO=6 KP=3.92)
.MODEL DR D (IS=1.32P CJO=1.7N VJ=1 M=0.82)
.MODEL DO D (IS=1.32P BV=599 CJO=6.82N VJ=1 M=0.7)
.MODEL DE D (IS=1.32P BV=15 N=2)
.MODEL DLIM D (IS=100N)
.ENDS
**********
*SRC=CM100TF12;CM100TF12;IGBTs;w/Diode;Powerex 600V 100A
*SYM=IGBT
.SUBCKT CM100TF12 71 72 74
*     TERMINALS:  C  G  E
Q1  83 81 85     QOUT ;OFF
M1  81 82 83 83  MFIN L=1U W=1U
DSD 83 81  DO
DBE 85 81  DE
RC  85 71  4.72M
RE  83 73  472U
RG  72 82  1.5
CGE 82 83  5.85N
EGD 91  0 82 81  1
VFB 93  0  0
FFB 82 81  VFB  1
CGD 92 93  25.5N
R1  92  0  1
D1  91 92  DLIM
DHV 94 93  DR
R2  91 94  1
D2  94  0  DLIM
LE  73 74  7.5N
DLV 94 95  DR 13
RLV 95  0  1
ESD 96 93  POLY(1) 83 81 19  1
MLV 95 96 93 93  SW
DFW 74 71 CM100TF1
.MODEL CM100TF1 D (IS=142N RS=420U N=1.7 BV=600 IBV=10U
+ CJO=4.11N VJ=0.75 M=0.333 TT=158N)
.MODEL SW NMOS (LEVEL=3 VTO=0 KP=5)
.MODEL QOUT PNP (IS=17.6P NF=1.2 BF=5.1 CJE=35.2N TF=38.5N XTB=1.3)
.MODEL MFIN NMOS (LEVEL=3 VMAX=400K THETA=40M ETA=2.01M VTO=6 KP=5.23)
.MODEL DR D (IS=1.76P CJO=1.82N VJ=1 M=0.82)
.MODEL DO D (IS=1.76P BV=599 CJO=9.69N VJ=1 M=0.7)
.MODEL DE D (IS=1.76P BV=15 N=2)
.MODEL DLIM D (IS=100N)
.ENDS
**********
*SRC=CM150TF12;CM150TF12;IGBTs;w/Diode;Powerex 600V 150A
*SYM=IGBT
.SUBCKT CM150TF12 71 72 74
*     TERMINALS:  C  G  E
Q1  83 81 85     QOUT ;OFF
M1  81 82 83 83  MFIN L=1U W=1U
DSD 83 81  DO
DBE 85 81  DE
RC  85 71  3.15M
RE  83 73  315U
RG  72 82  1
CGE 82 83  8.75N
EGD 91  0 82 81  1
VFB 93  0  0
FFB 82 81  VFB  1
CGD 92 93  42.5N
R1  92  0  1
D1  91 92  DLIM
DHV 94 93  DR
R2  91 94  1
D2  94  0  DLIM
LE  73 74  7.5N
DLV 94 95  DR 13
RLV 95  0  1
ESD 96 93  POLY(1) 83 81 19  1
MLV 95 96 93 93  SW
DFW 74 71 CM150TF1
.MODEL CM150TF1 D (IS=213N RS=280U N=1.7 BV=600 IBV=10U
+ CJO=6.17N VJ=0.75 M=0.333 TT=158N)
.MODEL SW NMOS (LEVEL=3 VTO=0 KP=5)
.MODEL QOUT PNP (IS=26.4P NF=1.2 BF=5.1 CJE=56.4N TF=47.2N XTB=1.3)
.MODEL MFIN NMOS (LEVEL=3 VMAX=400K THETA=40M ETA=2.01M VTO=6 KP=7.85)
.MODEL DR D (IS=2.64P CJO=3.04N VJ=1 M=0.82)
.MODEL DO D (IS=2.64P BV=599 CJO=13.9N VJ=1 M=0.7)
.MODEL DE D (IS=2.64P BV=15 N=2)
.MODEL DLIM D (IS=100N)
.ENDS
**********
*SRC=CM15TF24H;CM15TF24H;IGBTs;w/Diode;Powerex 1200V 15A
*SYM=IGBT
.SUBCKT CM15TF24H 71 72 74
*     TERMINALS:  C  G  E
Q1  83 81 85     QOUT; OFF
M1  81 82 83 83  MFIN L=1U W=1U
DSD 83 81  DO
DBE 85 81  DE
RC  85 71  40.5M
RE  83 73  4.05M
RG  72 82  10
CGE 82 83  1.77N
EGD 91  0 82 81  1
VFB 93  0  0
FFB 82 81  VFB  1
CGD 92 93  5.1N
R1  92  0  1
D1  91 92  DLIM
DHV 94 93  DR
R2  91 94  1
D2  94  0  DLIM
LE  73 74  7.5N
DLV 94 95  DR 13
RLV 95  0  1
ESD 96 93  POLY(1) 83 81 19  1
MLV 95 96 93 93  SW
DFW 74 71 CM15TF24
.MODEL CM15TF24 D (IS=21.3N RS=2.8M N=1.7 BV=1.2K IBV=10U
+ CJO=618P VJ=0.75 M=0.333 TT=360N)
.MODEL SW NMOS (LEVEL=3 VTO=0 KP=5)
.MODEL QOUT PNP (IS=375F NF=1.2 BF=5.1 CJE=6.95N TF=14.9N XTB=1.3)
.MODEL MFIN NMOS (LEVEL=3 VMAX=705K THETA=40M ETA=1M VTO=6 KP=0.722)
.MODEL DR D (IS=37.5F CJO=364P VJ=1 M=0.82)
.MODEL DO D (IS=37.5F BV=1.2K CJO=1.85N VJ=1 M=0.7)
.MODEL DE D (IS=37.5F BV=15 N=2)
.MODEL DLIM D (IS=100N)
.ENDS
**********
*SRC=CM20TF24H;CM20TF24H;IGBTs;w/Diode;Powerex 1200V 20A
*SYM=IGBT
.SUBCKT CM20TF24H 71 72 74
*     TERMINALS:  C  G  E
Q1  83 81 85     QOUT; OFF
M1  81 82 83 83  MFIN L=1U W=1U
DSD 83 81  DO
DBE 85 81  DE
RC  85 71  30.3M
RE  83 73  3.03M
RG  72 82  7.5
CGE 82 83  2.14N
EGD 91  0 82 81  1
VFB 93  0  0
FFB 82 81  VFB  1
CGD 92 93  10.2N
R1  92  0  1
D1  91 92  DLIM
DHV 94 93  DR
R2  91 94  1
D2  94  0  DLIM
LE  73 74  7.5N
DLV 94 95  DR 13
RLV 95  0  1
ESD 96 93  POLY(1) 83 81 19  1
MLV 95 96 93 93  SW
DFW 74 71 CM20TF24
.MODEL CM20TF24 D (IS=28.4N RS=2.1M N=1.7 BV=1.2K IBV=10U
+ CJO=823P VJ=0.75 M=0.333 TT=360N)
.MODEL SW NMOS (LEVEL=3 VTO=0 KP=5)
.MODEL QOUT PNP (IS=500F NF=1.2 BF=5.1 CJE=12.5N TF=17.2N XTB=1.3)
.MODEL MFIN NMOS (LEVEL=3 VMAX=705K THETA=40M ETA=1M VTO=6 KP=0.963)
.MODEL DR D (IS=50F CJO=728P VJ=1 M=0.82)
.MODEL DO D (IS=50F BV=1.2K CJO=2.27N VJ=1 M=0.7)
.MODEL DE D (IS=50F BV=15 N=2)
.MODEL DLIM D (IS=100N)
.ENDS
**********
*SRC=CM30TF24H;CM30TF24H;IGBTs;w/Diode;Powerex 1200V 30A
*SYM=IGBT
.SUBCKT CM30TF24H 71 72 74
*     TERMINALS:  C  G  E
Q1  83 81 85     QOUT; OFF
M1  81 82 83 83  MFIN L=1U W=1U
DSD 83 81  DO
DBE 85 81  DE
RC  85 71  22.5M
RE  83 73  2.25M
RG  72 82  5
CGE 82 83  3.41N
EGD 91  0 82 81  1
VFB 93  0  0
FFB 82 81  VFB  1
CGD 92 93  15.3N
R1  92  0  1
D1  91 92  DLIM
DHV 94 93  DR
R2  91 94  1
D2  94  0  DLIM
LE  73 74  7.5N
DLV 94 95  DR 13
RLV 95  0  1
ESD 96 93  POLY(1) 83 81 19  1
MLV 95 96 93 93  SW
DFW 74 71 CM30TF24
.MODEL CM30TF24 D (IS=42.6N RS=1.4M N=1.7 BV=1.2K IBV=10U
+ CJO=1.23N VJ=0.75 M=0.333 TT=360N)
.MODEL SW NMOS (LEVEL=3 VTO=0 KP=5)
.MODEL QOUT PNP (IS=283F NF=1.2 BF=5.1 CJE=18.8N TF=21.1N XTB=1.3)
.MODEL MFIN NMOS (LEVEL=3 VMAX=705K THETA=40M ETA=1M VTO=6 KP=1.44)
.MODEL DR D (IS=28.3F CJO=1.09N VJ=1 M=0.82)
.MODEL DO D (IS=28.3F BV=1.2K CJO=3.45N VJ=1 M=0.7)
.MODEL DE D (IS=28.3F BV=15 N=2)
.MODEL DLIM D (IS=100N)
.ENDS
**********
*SRC=CM50TF24H;CM50TF24H;IGBTs;w/Diode;Powerex 1200V 50A
*SYM=IGBT
.SUBCKT CM50TF24H 71 72 74
*     TERMINALS:  C  G  E
Q1  83 81 85     QOUT; OFF
M1  81 82 83 83  MFIN L=1U W=1U
DSD 83 81  DO
DBE 85 81  DE
RC  85 71  13.5M
RE  83 73  1.35M
RG  72 82  3
CGE 82 83  5.6N
EGD 91  0 82 81  1
VFB 93  0  0
FFB 82 81  VFB  1
CGD 92 93  34N
R1  92  0  1
D1  91 92  DLIM
DHV 94 93  DR
R2  91 94  1
D2  94  0  DLIM
LE  73 74  7.5N
DLV 94 95  DR 13
RLV 95  0  1
ESD 96 93  POLY(1) 83 81 19  1
MLV 95 96 93 93  SW
DFW 74 71 CM50TF24
.MODEL CM50TF24 D (IS=71N RS=840U N=1.7 BV=1.2K IBV=10U
+ CJO=2.06N VJ=0.75 M=0.333 TT=360N)
.MODEL SW NMOS (LEVEL=3 VTO=0 KP=5)
.MODEL QOUT PNP (IS=472F NF=1.2 BF=5.1 CJE=39.9N TF=27.2N XTB=1.3)
.MODEL MFIN NMOS (LEVEL=3 VMAX=705K THETA=40M ETA=1M VTO=6 KP=2.41)
.MODEL DR D (IS=47.2F CJO=2.43N VJ=1 M=0.82)
.MODEL DO D (IS=47.2F BV=1.2K CJO=5.9N VJ=1 M=0.7)
.MODEL DE D (IS=47.2F BV=15 N=2)
.MODEL DLIM D (IS=100N)
.ENDS
**********
*SRC=CM75TF24H;CM75TF24H;IGBTs;w/Diode;Powerex 1200V 75A
*SYM=IGBT
.SUBCKT CM75TF24H 71 72 74
*     TERMINALS:  C  G  E
Q1  83 81 85     QOUT; OFF
M1  81 82 83 83  MFIN L=1U W=1U
DSD 83 81  DO
DBE 85 81  DE
RC  85 71  8.99M
RE  83 73  899U
RG  72 82  2
CGE 82 83  8.3N
EGD 91  0 82 81  1
VFB 93  0  0
FFB 82 81  VFB  1
CGD 92 93  34N
R1  92  0  1
D1  91 92  DLIM
DHV 94 93  DR
R2  91 94  1
D2  94  0  DLIM
LE  73 74  7.5N
DLV 94 95  DR 13
RLV 95  0  1
ESD 96 93  POLY(1) 83 81 19  1
MLV 95 96 93 93  SW
DFW 74 71 CM75TF24
.MODEL CM75TF24 D (IS=107N RS=560U N=1.7 BV=1.2K IBV=10U
+ CJO=3.08N VJ=0.75 M=0.333 TT=360N)
.MODEL SW NMOS (LEVEL=3 VTO=0 KP=5)
.MODEL QOUT PNP (IS=708F NF=1.2 BF=5.1 CJE=44.9N TF=33.4N XTB=1.3)
.MODEL MFIN NMOS (LEVEL=3 VMAX=705K THETA=40M ETA=1M VTO=6 KP=3.61)
.MODEL DR D (IS=70.8F CJO=2.43N VJ=1 M=0.82)
.MODEL DO D (IS=70.8F BV=1.2K CJO=11N VJ=1 M=0.7)
.MODEL DE D (IS=70.8F BV=15 N=2)
.MODEL DLIM D (IS=100N)
.ENDS
**********
*SRC=CM100TF24;CM100TF24;IGBTs;w/Diode;Powerex 1200V 100A
*SYM=IGBT
.SUBCKT CM100TF24 71 72 74
*     TERMINALS:  C  G  E
Q1  83 81 85     QOUT; OFF
M1  81 82 83 83  MFIN L=1U W=1U
DSD 83 81  DO
DBE 85 81  DE
RC  85 71  6.74M
RE  83 73  674U
RG  72 82  1.5
CGE 82 83  9.9N
EGD 91  0 82 81  1
VFB 93  0  0
FFB 82 81  VFB  1
CGD 92 93  34N
R1  92  0  1
D1  91 92  DLIM
DHV 94 93  DR
R2  91 94  1
D2  94  0  DLIM
LE  73 74  7.5N
DLV 94 95  DR 13
RLV 95  0  1
ESD 96 93  POLY(1) 83 81 19  1
MLV 95 96 93 93  SW
DFW 74 71 CM100TF2
.MODEL CM100TF2 D (IS=142N RS=420U N=1.7 BV=1.2K IBV=10U
+ CJO=4.11N VJ=0.75 M=0.333 TT=360N)
.MODEL SW NMOS (LEVEL=3 VTO=0 KP=5)
.MODEL QOUT PNP (IS=944F NF=1.2 BF=5.1 CJE=46.6N TF=38.5N XTB=1.3)
.MODEL MFIN NMOS (LEVEL=3 VMAX=705K THETA=40M ETA=1M VTO=6 KP=4.82)
.MODEL DR D (IS=94.4F CJO=2.43N VJ=1 M=0.82)
.MODEL DO D (IS=94.4F BV=1.2K CJO=12.6N VJ=1 M=0.7)
.MODEL DE D (IS=94.4F BV=15 N=2)
.MODEL DLIM D (IS=100N)
.ENDS
**********
*SRC=CM300HA12;CM300HA12;IGBTs;w/Diode;Powerex 600V 300A
*SYM=IGBT
.SUBCKT CM300HA12 71 72 74
*     TERMINALS:  C  G  E
Q1  83 81 85     QOUT; OFF
M1  81 82 83 83  MFIN L=1U W=1U
DSD 83 81  DO
DBE 85 81  DE
RC  85 71  1.57M
RE  83 73  157U
RG  72 82  3.11
CGE 82 83  9.9N
EGD 91  0 82 81  1
VFB 93  0  0
FFB 82 81  VFB  1
CGD 92 93  51N
R1  92  0  1
D1  91 92  DLIM
DHV 94 93  DR
R2  91 94  1
D2  94  0  DLIM
LE  73 74  7.5N
DLV 94 95  DR 13
RLV 95  0  1
ESD 96 93  POLY(1) 83 81 19  1
MLV 95 96 93 93  SW
DFW 74 71 CM300HA1
.MODEL CM300HA1 D (IS=426N RS=140U N=1.7 BV=600 IBV=10U
+ CJO=12.3N VJ=0.75 M=0.333 TT=158N)
.MODEL SW NMOS (LEVEL=3 VTO=0 KP=5)
.MODEL QOUT PNP (IS=52.7P NF=1.2 BF=5.1 CJE=69.5N TF=66.7N XTB=1.3)
.MODEL MFIN NMOS (LEVEL=3 VMAX=400K THETA=40M ETA=2.01M VTO=6 KP=15.7)
.MODEL DR D (IS=5.27P CJO=3.64N VJ=1 M=0.82)
.MODEL DO D (IS=5.27P BV=599 CJO=18.5N VJ=1 M=0.7)
.MODEL DE D (IS=5.27P BV=15 N=2)
.MODEL DLIM D (IS=100N)
.ENDS
**********
*SRC=CM400HA12;CM400HA12;IGBTs;w/Diode;Powerex 600V 400A
*SYM=IGBT
.SUBCKT CM400HA12 71 72 74
*     TERMINALS:  C  G  E
Q1  83 81 85     QOUT; OFF
M1  81 82 83 83  MFIN L=1U W=1U
DSD 83 81  DO
DBE 85 81  DE
RC  85 71  1.18M
RE  83 73  118U
RG  72 82  1.65
CGE 82 83  10.7N
EGD 91  0 82 81  1
VFB 93  0  0
FFB 82 81  VFB  1
CGD 92 93  102N
R1  92  0  1
D1  91 92  DLIM
DHV 94 93  DR
R2  91 94  1
D2  94  0  DLIM
LE  73 74  7.5N
DLV 94 95  DR 13
RLV 95  0  1
ESD 96 93  POLY(1) 83 81 19  1
MLV 95 96 93 93  SW
DFW 74 71 CM400HA1
.MODEL CM400HA1 D (IS=568N RS=105U N=1.7 BV=600 IBV=10U
+ CJO=16.4N VJ=0.75 M=0.333 TT=158N)
.MODEL SW NMOS (LEVEL=3 VTO=0 KP=5)
.MODEL QOUT PNP (IS=70.3P NF=1.2 BF=5.1 CJE=136N TF=77.1N XTB=1.3)
.MODEL MFIN NMOS (LEVEL=3 VMAX=400K THETA=40M ETA=2.01M VTO=6 KP=20.9)
.MODEL DR D (IS=7.03P CJO=7.28N VJ=1 M=0.82)
.MODEL DO D (IS=7.03P BV=599 CJO=33.7N VJ=1 M=0.7)
.MODEL DE D (IS=7.03P BV=15 N=2)
.MODEL DLIM D (IS=100N)
.ENDS
**********
*SRC=CM600HA12;CM600HA12;IGBTs;w/Diode;Powerex 600V 600A
*SYM=IGBT
.SUBCKT CM600HA12 71 72 74
*     TERMINALS:  C  G  E
Q1  83 81 85     QOUT; OFF
M1  81 82 83 83  MFIN L=1U W=1U
DSD 83 81  DO
DBE 85 81  DE
RC  85 71  787U
RE  83 73  78.7U
RG  72 82  0.929
CGE 82 83  11.4N
EGD 91  0 82 81  1
VFB 93  0  0
FFB 82 81  VFB  1
CGD 92 93  221N
R1  92  0  1
D1  91 92  DLIM
DHV 94 93  DR
R2  91 94  1
D2  94  0  DLIM
LE  73 74  7.5N
DLV 94 95  DR 13
RLV 95  0  1
ESD 96 93  POLY(1) 83 81 19  1
MLV 95 96 93 93  SW
DFW 74 71 CM600HA1
.MODEL CM600HA1 D (IS=853N RS=70U N=1.7 BV=600 IBV=10U
+ CJO=24.7N VJ=0.75 M=0.333 TT=158N)
.MODEL SW NMOS (LEVEL=3 VTO=0 KP=5)
.MODEL QOUT PNP (IS=105P NF=1.2 BF=5.1 CJE=273N TF=94.4N XTB=1.3)
.MODEL MFIN NMOS (LEVEL=3 VMAX=400K THETA=40M ETA=2.01M VTO=6 KP=31.4)
.MODEL DR D (IS=10.5P CJO=15.8N VJ=1 M=0.82)
.MODEL DO D (IS=10.5P BV=599 CJO=52.2N VJ=1 M=0.7)
.MODEL DE D (IS=10.5P BV=15 N=2)
.MODEL DLIM D (IS=100N)
.ENDS
**********
*SRC=CM200HA24;CM200HA24;IGBTs;w/Diode;Powerex 1200V 200A
*SYM=IGBT
.SUBCKT CM200HA24 71 72 74
*     TERMINALS:  C  G  E
Q1  83 81 85     QOUT; OFF
M1  81 82 83 83  MFIN L=1U W=1U
DSD 83 81  DO
DBE 85 81  DE
RC  85 71  3.03M
RE  83 73  303U
RG  72 82  0.832
CGE 82 83  21.5N
EGD 91  0 82 81  1
VFB 93  0  0
FFB 82 81  VFB  1
CGD 92 93  85N
R1  92  0  1
D1  91 92  DLIM
DHV 94 93  DR
R2  91 94  1
D2  94  0  DLIM
LE  73 74  7.5N
DLV 94 95  DR 13
RLV 95  0  1
ESD 96 93  POLY(1) 83 81 19  1
MLV 95 96 93 93  SW
DFW 74 71 CM200HA2
.MODEL CM200HA2 D (IS=284N RS=210U N=1.7 BV=1.2K IBV=10U
+ CJO=8.22N VJ=0.75 M=0.333 TT=360N)
.MODEL SW NMOS (LEVEL=3 VTO=0 KP=5)
.MODEL QOUT PNP (IS=5P NF=1.2 BF=5.1 CJE=109N TF=54.5N XTB=1.3)
.MODEL MFIN NMOS (LEVEL=3 VMAX=705K THETA=40M ETA=1M VTO=6 KP=9.63)
.MODEL DR D (IS=500F CJO=6.07N VJ=1 M=0.82)
.MODEL DO D (IS=500F BV=1.2K CJO=23.6N VJ=1 M=0.7)
.MODEL DE D (IS=500F BV=15 N=2)
.MODEL DLIM D (IS=100N)
.ENDS
**********
*SRC=CM300HA24;CM300HA24;IGBTs;w/Diode;Powerex 1200V 300A
*SYM=IGBT
.SUBCKT CM300HA24 71 72 74
*     TERMINALS:  C  G  E
Q1  83 81 85     QOUT; OFF
M1  81 82 83 83  MFIN L=1U W=1U
DSD 83 81  DO
DBE 85 81  DE
RC  85 71  2.02M
RE  83 73  202U
RG  72 82  1.1
CGE 82 83  32.3N
EGD 91  0 82 81  1
VFB 93  0  0
FFB 82 81  VFB  1
CGD 92 93  119N
R1  92  0  1
D1  91 92  DLIM
DHV 94 93  DR
R2  91 94  1
D2  94  0  DLIM
LE  73 74  7.5N
DLV 94 95  DR 13
RLV 95  0  1
ESD 96 93  POLY(1) 83 81 19  1
MLV 95 96 93 93  SW
DFW 74 71 CM300HA2
.MODEL CM300HA2 D (IS=426N RS=140U N=1.7 BV=1.2K IBV=10U
+ CJO=12.3N VJ=0.75 M=0.333 TT=360N)
.MODEL SW NMOS (LEVEL=3 VTO=0 KP=5)
.MODEL QOUT PNP (IS=7.51P NF=1.2 BF=5.1 CJE=155N TF=66.7N XTB=1.3)
.MODEL MFIN NMOS (LEVEL=3 VMAX=705K THETA=40M ETA=1M VTO=6 KP=14.4)
.MODEL DR D (IS=751F CJO=8.5N VJ=1 M=0.82)
.MODEL DO D (IS=751F BV=1.2K CJO=36.2N VJ=1 M=0.7)
.MODEL DE D (IS=751F BV=15 N=2)
.MODEL DLIM D (IS=100N)
.ENDS
**********
*SRC=CM400HA24;CM400HA24;IGBTs;w/Diode;Powerex 1200V 400A
*SYM=IGBT
.SUBCKT CM400HA24 71 72 74
*     TERMINALS:  C  G  E
Q1  83 81 85     QOUT; OFF
M1  81 82 83 83  MFIN L=1U W=1U
DSD 83 81  DO
DBE 85 81  DE
RC  85 71  1.52M
RE  83 73  152U
RG  72 82  0.583
CGE 82 83  47.7N
EGD 91  0 82 81  1
VFB 93  0  0
FFB 82 81  VFB  1
CGD 92 93  221N
R1  92  0  1
D1  91 92  DLIM
DHV 94 93  DR
R2  91 94  1
D2  94  0  DLIM
LE  73 74  7.5N
DLV 94 95  DR 13
RLV 95  0  1
ESD 96 93  POLY(1) 83 81 19  1
MLV 95 96 93 93  SW
DFW 74 71 CM400HA2
.MODEL CM400HA2 D (IS=568N RS=105U N=1.7 BV=1.2K IBV=10U
+ CJO=16.4N VJ=0.75 M=0.333 TT=360N)
.MODEL SW NMOS (LEVEL=3 VTO=0 KP=5)
.MODEL QOUT PNP (IS=10P NF=1.2 BF=5.1 CJE=273N TF=77.1N XTB=1.3)
.MODEL MFIN NMOS (LEVEL=3 VMAX=705K THETA=40M ETA=1M VTO=6 KP=19.3)
.MODEL DR D (IS=1P CJO=15.8N VJ=1 M=0.82)
.MODEL DO D (IS=1P BV=1.2K CJO=52.2N VJ=1 M=0.7)
.MODEL DE D (IS=1P BV=15 N=2)
.MODEL DLIM D (IS=100N)
.ENDS
**********
*SRC=CM600HA24;CM600HA24;IGBTs;w/Diode;Powerex 1200V 600A
*SYM=IGBT
.SUBCKT CM600HA24 71 72 74
*     TERMINALS:  C  G  E
Q1  83 81 85     QOUT; OFF
M1  81 82 83 83  MFIN L=1U W=1U
DSD 83 81  DO
DBE 85 81  DE
RC  85 71  1.01M
RE  83 73  101U
RG  72 82  0.25
CGE 82 83  68.4N
EGD 91  0 82 81  1
VFB 93  0  0
FFB 82 81  VFB  1
CGD 92 93  272N
R1  92  0  1
D1  91 92  DLIM
DHV 94 93  DR
R2  91 94  1
D2  94  0  DLIM
LE  73 74  7.5N
DLV 94 95  DR 13
RLV 95  0  1
ESD 96 93  POLY(1) 83 81 19  1
MLV 95 96 93 93  SW
DFW 74 71 CM600HA2
.MODEL CM600HA2 D (IS=853N RS=70U N=1.7 BV=1.2K IBV=10U
+ CJO=24.7N VJ=0.75 M=0.333 TT=360N)
.MODEL SW NMOS (LEVEL=3 VTO=0 KP=5)
.MODEL QOUT PNP (IS=15P NF=1.2 BF=5.1 CJE=351N TF=94.4N XTB=1.3)
.MODEL MFIN NMOS (LEVEL=3 VMAX=705K THETA=40M ETA=1M VTO=6 KP=28.9)
.MODEL DR D (IS=1.5P CJO=19.4N VJ=1 M=0.82)
.MODEL DO D (IS=1.5P BV=1.2K CJO=79.2N VJ=1 M=0.7)
.MODEL DE D (IS=1.5P BV=15 N=2)
.MODEL DLIM D (IS=100N)
.ENDS
**********
*SRC=CM1000HA2;CM1000HA2;IGBTs;w/Diode;Powerex 1200V 1000A
*SYM=IGBT
.SUBCKT CM1000HA2 71 72 74
*     TERMINALS:  C  G  E
Q1  83 81 85     QOUT; OFF
M1  81 82 83 83  MFIN L=1U W=1U
DSD 83 81  DO
DBE 85 81  DE
RC  85 71  674U
RE  83 73  67.4U
RG  72 82  0.15
CGE 82 83  97.7N
EGD 91  0 82 81  1
VFB 93  0  0
FFB 82 81  VFB  1
CGD 92 93  391N
R1  92  0  1
D1  91 92  DLIM
DHV 94 93  DR
R2  91 94  1
D2  94  0  DLIM
LE  73 74  7.5N
DLV 94 95  DR 13
RLV 95  0  1
ESD 96 93  POLY(1) 83 81 19  1
MLV 95 96 93 93  SW
DFW 74 71 CM1000HA
.MODEL CM1000HA D (IS=1.42U RS=42U N=1.7 BV=1.2K IBV=10U
+ CJO=41.1N VJ=0.75 M=0.333 TT=360N)
.MODEL SW NMOS (LEVEL=3 VTO=0 KP=5)
.MODEL QOUT PNP (IS=9.44P NF=1.2 BF=5.1 CJE=515N TF=122N XTB=1.3)
.MODEL MFIN NMOS (LEVEL=3 VMAX=705K THETA=40M ETA=1M VTO=6 KP=48.2)
.MODEL DR D (IS=944F CJO=27.9N VJ=1 M=0.82)
.MODEL DO D (IS=944F BV=1.2K CJO=124N VJ=1 M=0.7)
.MODEL DE D (IS=944F BV=15 N=2)
.MODEL DLIM D (IS=100N)
.ENDS
**********
*SRC=CM400HA28;CM400HA28;IGBTs;w/Diode;Powerex 1400V 400A
*SYM=IGBT
.SUBCKT CM400HA28 71 72 74
*     TERMINALS:  C  G  E
Q1  83 81 85     QOUT; OFF
M1  81 82 83 83  MFIN L=1U W=1U
DSD 83 81  DO
DBE 85 81  DE
RC  85 71  1.76M
RE  83 73  176U
RG  72 82  0.841
CGE 82 83  40.8N
EGD 91  0 82 81  1
VFB 93  0  0
FFB 82 81  VFB  1
CGD 92 93  204N
R1  92  0  1
D1  91 92  DLIM
DHV 94 93  DR
R2  91 94  1
D2  94  0  DLIM
LE  73 74  7.5N
DLV 94 95  DR 13
RLV 95  0  1
ESD 96 93  POLY(1) 83 81 19  1
MLV 95 96 93 93  SW
DFW 74 71 CM400HA2
.MODEL CM400HA2 D (IS=568N RS=105U N=1.7 BV=1.4K IBV=10U
+ CJO=16.4N VJ=0.75 M=0.333 TT=432N)
.MODEL SW NMOS (LEVEL=3 VTO=0 KP=5)
.MODEL QOUT PNP (IS=538F NF=1.2 BF=5.1 CJE=240N TF=77.1N XTB=1.3)
.MODEL MFIN NMOS (LEVEL=3 VMAX=807K THETA=36.9M ETA=860U VTO=6.5 KP=18.8)
.MODEL DR D (IS=53.8F CJO=14.6N VJ=1 M=0.82)
.MODEL DO D (IS=53.8F BV=1.4K CJO=36.2N VJ=1 M=0.7)
.MODEL DE D (IS=53.8F BV=15 N=2)
.MODEL DLIM D (IS=100N)
.ENDS
**********
*SRC=CM600HA28;CM600HA28;IGBTs;w/Diode;Powerex 1400V 600A
*SYM=IGBT
.SUBCKT CM600HA28 71 72 74
*     TERMINALS:  C  G  E
Q1  83 81 85     QOUT; OFF
M1  81 82 83 83  MFIN L=1U W=1U
DSD 83 81  DO
DBE 85 81  DE
RC  85 71  1.35M
RE  83 73  135U
RG  72 82  0.25
CGE 82 83  58.1N
EGD 91  0 82 81  1
VFB 93  0  0
FFB 82 81  VFB  1
CGD 92 93  323N
R1  92  0  1
D1  91 92  DLIM
DHV 94 93  DR
R2  91 94  1
D2  94  0  DLIM
LE  73 74  7.5N
DLV 94 95  DR 13
RLV 95  0  1
ESD 96 93  POLY(1) 83 81 19  1
MLV 95 96 93 93  SW
DFW 74 71 CM600HA2
.MODEL CM600HA2 D (IS=853N RS=70U N=1.7 BV=1.4K IBV=10U
+ CJO=24.7N VJ=0.75 M=0.333 TT=432N)
.MODEL SW NMOS (LEVEL=3 VTO=0 KP=5)
.MODEL QOUT PNP (IS=806F NF=1.2 BF=5.1 CJE=383N TF=94.4N XTB=1.3)
.MODEL MFIN NMOS (LEVEL=3 VMAX=807K THETA=40M ETA=860U VTO=6 KP=28.5)
.MODEL DR D (IS=80.6F CJO=23.1N VJ=1 M=0.82)
.MODEL DO D (IS=80.6F BV=1.4K CJO=59.8N VJ=1 M=0.7)
.MODEL DE D (IS=80.6F BV=15 N=2)
.MODEL DLIM D (IS=100N)
.ENDS
**********
*SRC=CM400HA34;CM400HA34;IGBTs;w/Diode;Powerex 1700V 400A
*SYM=IGBT
.SUBCKT CM400HA34 71 72 74
*     TERMINALS:  C  G  E
Q1  83 81 85     QOUT; OFF
M1  81 82 83 83  MFIN L=1U W=1U
DSD 83 81  DO
DBE 85 81  DE
RC  85 71  1.69M
RE  83 73  169U
RG  72 82  0.375
CGE 82 83  47N
EGD 91  0 82 81  1
VFB 93  0  0
FFB 82 81  VFB  1
CGD 92 93  510N
R1  92  0  1
D1  91 92  DLIM
DHV 94 93  DR
R2  91 94  1
D2  94  0  DLIM
LE  73 74  7.5N
DLV 94 95  DR 13
RLV 95  0  1
ESD 96 93  POLY(1) 83 81 19  1
MLV 95 96 93 93  SW
DFW 74 71 CM400HA3
.MODEL CM400HA3 D (IS=568N RS=105U N=1.7 BV=1.7K IBV=10U
+ CJO=16.4N VJ=0.75 M=0.333 TT=576N)
.MODEL SW NMOS (LEVEL=3 VTO=0 KP=5)
.MODEL QOUT PNP (IS=3.78P NF=1.2 BF=5.1 CJE=544N TF=77.1N XTB=1.3)
.MODEL MFIN NMOS (LEVEL=3 VMAX=960K THETA=40M ETA=708U VTO=6 KP=18.7)
.MODEL DR D (IS=378F CJO=36.4N VJ=1 M=0.82)
.MODEL DO D (IS=378F BV=1.7K CJO=33.7N VJ=1 M=0.7)
.MODEL DE D (IS=378F BV=15 N=2)
.MODEL DLIM D (IS=100N)
.ENDS
**********
*SRC=CM50DY12H;CM50DY12H;IGBTs;w/Diode;Powerex 600V 50A
*SYM=IGBT
.SUBCKT CM50DY12H 71 72 74
*     TERMINALS:  C  G  E
Q1  83 81 85     QOUT; OFF
M1  81 82 83 83  MFIN L=1U W=1U
DSD 83 81  DO
DBE 85 81  DE
RC  85 71  9.44M
RE  83 73  944U
RG  72 82  3
CGE 82 83  2.87N
EGD 91  0 82 81  1
VFB 93  0  0
FFB 82 81  VFB  1
CGD 92 93  22.1N
R1  92  0  1
D1  91 92  DLIM
DHV 94 93  DR
R2  91 94  1
D2  94  0  DLIM
LE  73 74  7.5N
DLV 94 95  DR 13
RLV 95  0  1
ESD 96 93  POLY(1) 83 81 19  1
MLV 95 96 93 93  SW
DFW 74 71 CM50DY12
.MODEL CM50DY12 D (IS=71N RS=840U N=1.7 BV=600 IBV=10U
+ CJO=2.06N VJ=0.75 M=0.333 TT=158N)
.MODEL SW NMOS (LEVEL=3 VTO=0 KP=5)
.MODEL QOUT PNP (IS=8.79P NF=1.2 BF=5.1 CJE=26.1N TF=27.2N XTB=1.3)
.MODEL MFIN NMOS (LEVEL=3 VMAX=400K THETA=40M ETA=2.01M VTO=6 KP=2.62)
.MODEL DR D (IS=879F CJO=1.58N VJ=1 M=0.82)
.MODEL DO D (IS=879F BV=599 CJO=3.96N VJ=1 M=0.7)
.MODEL DE D (IS=879F BV=15 N=2)
.MODEL DLIM D (IS=100N)
.ENDS
**********
*SRC=CM75DY12H;CM75DY12H;IGBTs;w/Diode;Powerex 600V 75A
*SYM=IGBT
.SUBCKT CM75DY12H 71 72 74
*     TERMINALS:  C  G  E
Q1  83 81 85     QOUT; OFF
M1  81 82 83 83  MFIN L=1U W=1U
DSD 83 81  DO
DBE 85 81  DE
RC  85 71  6.29M
RE  83 73  629U
RG  72 82  2
CGE 82 83  4.35N
EGD 91  0 82 81  1
VFB 93  0  0
FFB 82 81  VFB  1
CGD 92 93  25.5N
R1  92  0  1
D1  91 92  DLIM
DHV 94 93  DR
R2  91 94  1
D2  94  0  DLIM
LE  73 74  7.5N
DLV 94 95  DR 13
RLV 95  0  1
ESD 96 93  POLY(1) 83 81 19  1
MLV 95 96 93 93  SW
DFW 74 71 CM75DY12
.MODEL CM75DY12 D (IS=107N RS=560U N=1.7 BV=600 IBV=10U
+ CJO=3.08N VJ=0.75 M=0.333 TT=158N)
.MODEL SW NMOS (LEVEL=3 VTO=0 KP=5)
.MODEL QOUT PNP (IS=13.2P NF=1.2 BF=5.1 CJE=31.8N TF=33.4N XTB=1.3)
.MODEL MFIN NMOS (LEVEL=3 VMAX=400K THETA=40M ETA=2.01M VTO=6 KP=3.92)
.MODEL DR D (IS=1.32P CJO=1.82N VJ=1 M=0.82)
.MODEL DO D (IS=1.32P BV=599 CJO=6.32N VJ=1 M=0.7)
.MODEL DE D (IS=1.32P BV=15 N=2)
.MODEL DLIM D (IS=100N)
.ENDS
**********
*SRC=CM100DY12;CM100DY12;IGBTs;w/Diode;Powerex 600V 100A
*SYM=IGBT
.SUBCKT CM100DY12 71 72 74
*     TERMINALS:  C  G  E
Q1  83 81 85     QOUT; OFF
M1  81 82 83 83  MFIN L=1U W=1U
DSD 83 81  DO
DBE 85 81  DE
RC  85 71  4.72M
RE  83 73  472U
RG  72 82  1.5
CGE 82 83  5.82N
EGD 91  0 82 81  1
VFB 93  0  0
FFB 82 81  VFB  1
CGD 92 93  30.6N
R1  92  0  1
D1  91 92  DLIM
DHV 94 93  DR
R2  91 94  1
D2  94  0  DLIM
LE  73 74  7.5N
DLV 94 95  DR 13
RLV 95  0  1
ESD 96 93  POLY(1) 83 81 19  1
MLV 95 96 93 93  SW
DFW 74 71 CM100DY1
.MODEL CM100DY1 D (IS=142N RS=420U N=1.7 BV=600 IBV=10U
+ CJO=4.11N VJ=0.75 M=0.333 TT=158N)
.MODEL SW NMOS (LEVEL=3 VTO=0 KP=5)
.MODEL QOUT PNP (IS=17.6P NF=1.2 BF=5.1 CJE=40.9N TF=38.5N XTB=1.3)
.MODEL MFIN NMOS (LEVEL=3 VMAX=400K THETA=40M ETA=2.01M VTO=6 KP=5.23)
.MODEL DR D (IS=1.76P CJO=2.19N VJ=1 M=0.82)
.MODEL DO D (IS=1.76P BV=599 CJO=10.3N VJ=1 M=0.7)
.MODEL DE D (IS=1.76P BV=15 N=2)
.MODEL DLIM D (IS=100N)
.ENDS
**********
*SRC=CM150DY12;CM150DY12;IGBTs;w/Diode;Powerex 600V 150A
*SYM=IGBT
.SUBCKT CM150DY12 71 72 74
*     TERMINALS:  C  G  E
Q1  83 81 85     QOUT; OFF
M1  81 82 83 83  MFIN L=1U W=1U
DSD 83 81  DO
DBE 85 81  DE
RC  85 71  3.15M
RE  83 73  315U
RG  72 82  1
CGE 82 83  8.76N
EGD 91  0 82 81  1
VFB 93  0  0
FFB 82 81  VFB  1
CGD 92 93  40.8N
R1  92  0  1
D1  91 92  DLIM
DHV 94 93  DR
R2  91 94  1
D2  94  0  DLIM
LE  73 74  7.5N
DLV 94 95  DR 13
RLV 95  0  1
ESD 96 93  POLY(1) 83 81 19  1
MLV 95 96 93 93  SW
DFW 74 71 CM150DY1
.MODEL CM150DY1 D (IS=213N RS=280U N=1.7 BV=600 IBV=10U
+ CJO=6.17N VJ=0.75 M=0.333 TT=158N)
.MODEL SW NMOS (LEVEL=3 VTO=0 KP=5)
.MODEL QOUT PNP (IS=26.4P NF=1.2 BF=5.1 CJE=54.8N TF=47.2N XTB=1.3)
.MODEL MFIN NMOS (LEVEL=3 VMAX=400K THETA=40M ETA=2.01M VTO=6 KP=7.85)
.MODEL DR D (IS=2.64P CJO=2.91N VJ=1 M=0.82)
.MODEL DO D (IS=2.64P BV=599 CJO=14N VJ=1 M=0.7)
.MODEL DE D (IS=2.64P BV=15 N=2)
.MODEL DLIM D (IS=100N)
.ENDS
**********
*SRC=CM200DY12;CM200DY12;IGBTs;w/Diode;Powerex 600V 200A
*SYM=IGBT
.SUBCKT CM200DY12 71 72 74
*     TERMINALS:  C  G  E
Q1  83 81 85     QOUT; OFF
M1  81 82 83 83  MFIN L=1U W=1U
DSD 83 81  DO
DBE 85 81  DE
RC  85 71  2.36M
RE  83 73  236U
RG  72 82  1.03
CGE 82 83  11.7N
EGD 91  0 82 81  1
VFB 93  0  0
FFB 82 81  VFB  1
CGD 92 93  51N
R1  92  0  1
D1  91 92  DLIM
DHV 94 93  DR
R2  91 94  1
D2  94  0  DLIM
LE  73 74  7.5N
DLV 94 95  DR 13
RLV 95  0  1
ESD 96 93  POLY(1) 83 81 19  1
MLV 95 96 93 93  SW
DFW 74 71 CM200DY1
.MODEL CM200DY1 D (IS=284N RS=210U N=1.7 BV=600 IBV=10U
+ CJO=8.22N VJ=0.75 M=0.333 TT=158N)
.MODEL SW NMOS (LEVEL=3 VTO=0 KP=5)
.MODEL QOUT PNP (IS=35.2P NF=1.2 BF=5.1 CJE=69.5N TF=54.5N XTB=1.3)
.MODEL MFIN NMOS (LEVEL=3 VMAX=400K THETA=40M ETA=2.01M VTO=6 KP=10.5)
.MODEL DR D (IS=3.52P CJO=3.64N VJ=1 M=0.82)
.MODEL DO D (IS=3.52P BV=599 CJO=18.5N VJ=1 M=0.7)
.MODEL DE D (IS=3.52P BV=15 N=2)
.MODEL DLIM D (IS=100N)
.ENDS
**********
*SRC=CM300DY12;CM300DY12;IGBTs;w/Diode;Powerex 600V 300A
*SYM=IGBT
.SUBCKT CM300DY12 71 72 74
*     TERMINALS:  C  G  E
Q1  83 81 85     QOUT; OFF
M1  81 82 83 83  MFIN L=1U W=1U
DSD 83 81  DO
DBE 85 81  DE
RC  85 71  1.57M
RE  83 73  157U
RG  72 82  2.88
CGE 82 83  12.7N
EGD 91  0 82 81  1
VFB 93  0  0
FFB 82 81  VFB  1
CGD 92 93  51N
R1  92  0  1
D1  91 92  DLIM
DHV 94 93  DR
R2  91 94  1
D2  94  0  DLIM
LE  73 74  7.5N
DLV 94 95  DR 13
RLV 95  0  1
ESD 96 93  POLY(1) 83 81 19  1
MLV 95 96 93 93  SW
DFW 74 71 CM300DY1
.MODEL CM300DY1 D (IS=426N RS=140U N=1.7 BV=600 IBV=10U
+ CJO=12.3N VJ=0.75 M=0.333 TT=158N)
.MODEL SW NMOS (LEVEL=3 VTO=0 KP=5)
.MODEL QOUT PNP (IS=52.7P NF=1.2 BF=5.1 CJE=69.5N TF=66.7N XTB=1.3)
.MODEL MFIN NMOS (LEVEL=3 VMAX=400K THETA=40M ETA=2.01M VTO=6 KP=15.7)
.MODEL DR D (IS=5.27P CJO=3.64N VJ=1 M=0.82)
.MODEL DO D (IS=5.27P BV=599 CJO=18.5N VJ=1 M=0.7)
.MODEL DE D (IS=5.27P BV=15 N=2)
.MODEL DLIM D (IS=100N)
.ENDS
**********
*SRC=CM400DY12;CM400DY12;IGBTs;w/Diode;Powerex 600V 400A
*SYM=IGBT
.SUBCKT CM400DY12 71 72 74
*     TERMINALS:  C  G  E
Q1  83 81 85     QOUT; OFF
M1  81 82 83 83  MFIN L=1U W=1U
DSD 83 81  DO
DBE 85 81  DE
RC  85 71  1.18M
RE  83 73  118U
RG  72 82  1.3
CGE 82 83  24.4N
EGD 91  0 82 81  1
VFB 93  0  0
FFB 82 81  VFB  1
CGD 92 93  102N
R1  92  0  1
D1  91 92  DLIM
DHV 94 93  DR
R2  91 94  1
D2  94  0  DLIM
LE  73 74  7.5N
DLV 94 95  DR 13
RLV 95  0  1
ESD 96 93  POLY(1) 83 81 19  1
MLV 95 96 93 93  SW
DFW 74 71 CM400DY1
.MODEL CM400DY1 D (IS=568N RS=105U N=1.7 BV=600 IBV=10U
+ CJO=16.4N VJ=0.75 M=0.333 TT=158N)
.MODEL SW NMOS (LEVEL=3 VTO=0 KP=5)
.MODEL QOUT PNP (IS=70.3P NF=1.2 BF=5.1 CJE=139N TF=77.1N XTB=1.3)
.MODEL MFIN NMOS (LEVEL=3 VMAX=400K THETA=40M ETA=2.01M VTO=6 KP=20.9)
.MODEL DR D (IS=7.03P CJO=7.28N VJ=1 M=0.82)
.MODEL DO D (IS=7.03P BV=599 CJO=37.1N VJ=1 M=0.7)
.MODEL DE D (IS=7.03P BV=15 N=2)
.MODEL DLIM D (IS=100N)
.ENDS
**********
*SRC=CM50DY24H;CM50DY24H;IGBTs;w/Diode;Powerex 1200V 50A
*SYM=IGBT
.SUBCKT CM50DY24H 71 72 74
*     TERMINALS:  C  G  E