*UltraFet  HUF75307 Nom Temp=25 deg C
*Reviewed 11 Feb 99
.SUBCKT HUF75307_IS  2 1 3

Ca 12 8  4.5e-10
Cb 15 14 4.1e-10
Cin 6 8 2.154e-10

Dbody 7 5 DbodyMOD
Dbreak 5 11 DbreakMOD
Dplcap 10 5 DplcapMOD

Ebreak 11 7 17 18 56
Eds 14 8 5 8 1
Egs 13 8 6 8 1
Esg 6 10 6 8 1
Evthres 6 21 19 8 1
Evtemp 20 6 18 22 1

It 8 17 1

Lgate 1 9 5.97e-10
Ldrain 2 5 1e-9
Lsource 3 7 2.39e-9
K1 LGATE LSOURCE 0.131

RLgate 1 9 60
RLdrain 2 5 10
RLsource 3 7 24

Mmed 16 6 8 8 MmedMOD
Mstro 16 6 8 8 MstroMOD
Mweak 16 21 8 8 MweakMOD


Rbreak 17 18 RbreakMOD 1
Rdrain 50 16 RdrainMOD 1e-3
Rgate 9 20 1.9
RSLC1 5 51 RSLCMOD 1e-6
RSLC2 5 50 1e3
Rsource 8 7 RsourceMOD .055
Rvthres 22 8 RvthresMOD 1
Rvtemp 18 19 RvtempMOD 1
S1a 6 12 13 8 S1AMOD
S1b 13 12 13 8 S1BMOD
S2a 6 15 14 13 S2AMOD
S2b 13 15 14 13 S2BMOD

Vbat 22 19 DC 1

ESLC 51 50  VALUE={(V(5,51)/ABS(V(5,51)))*(PWR(V(5,51)/(1e-6*35),4))}
.MODEL DbodyMOD D (IS=1.6E-13  RS=12.75e-3 IKF=5.5 N=0.985 TRS1=2.9e-3 TRS2=-4e-6
+ CJO=3.5e-10 TT=31e-9 M=.45 XTI=6)
.MODEL DbreakMOD D (RS=0.25 IKF=.1 N=1 TRS1=-4e-3 TRS2=3e-5)
.MODEL DplcapMOD D (CJO=5e-10 IS=1e-30 N=10 M=.95)

.MODEL MmedMOD NMOS (VTO=3.25 KP=2.2 lambda=.001 IS=1e-30 N=10 TOX=1 L=1u W=1u RG=1)
.MODEL MstroMOD NMOS (VTO=3.75 KP=14.75 lambda=.001 IS=1e-30 N=10 TOX=1 L=1u W=1u)
.MODEL MweakMOD NMOS (VTO=2.88 kp=.03 lambda=.001 IS=1e-30 N=10 TOX=1 L=1u W=1u RG=10 RS=.1)

.MODEL RbreakMOD RES (TC1=1.12e-3 TC2=1e-6)
.MODEL RdrainMOD RES (TC1=2.3e-1 TC2=6e-4)
.MODEL RSLCMOD RES (TC1=4e-3 TC2=1e-6)
.MODEL RsourceMOD RES (TC1=10e-4 TC2=6e-6)
.MODEL RvthresMOD RES (TC1=-3.31e-3 TC2=-1.49e-5)
.MODEL RvtempMOD RES  (TC1=-1.4e-3 TC2=1e-9)

.MODEL S1AMOD VSWITCH (RON=1e-5 ROFF=0.1 VON=-8.1 VOFF=-4)
.MODEL S1BMOD VSWITCH (RON=1e-5 ROFF=0.1 VON=-4 VOFF=-8.1)
.MODEL S2AMOD VSWITCH (RON=1e-5 ROFF=0.1 VON=0   VOFF=2)
.MODEL S2BMOD VSWITCH (RON=1e-5 ROFF=0.1 VON=2 VOFF=0)

.ENDS

*Thermal Model Subcircuit
*T75307
*11 Feb 99
.subckt t75307_IS junction ambient

CTHERM1 Junction c2 8e-4
CTHERM2 c2 c3 1.6e-3
CTHERM3 c3 c4 1.9E-3
CTHERM4 c4 c5 2.6e-3
CTHERM5 c5 c6 5.5E-3
CTHERM6 c6 ambient 1.8e-2

RTHERM1 Junction c2 8e-3
RTHERM2 c2 c3 2.1e-2
RTHERM3 c3 c4 2.2e-1
RTHERM4 c4 c5 6.4e-1
RTHERM5 c5 c6 7.7e-1
RTHERM6 c6 ambient 1.0
.ends
*UltraFet  HUF75307 SOT-223 Nom Temp=25 deg C
.SUBCKT HUF75307T_IS  2 1 3
*19Mar98

Ca 12 8  3.5e-10
Cb 15 14 3.7e-10
Cin 6 8 2.258e-10

Dbody 7 5 DbodyMOD
Dbreak 5 11 DbreakMOD
Dplcap 10 5 DplcapMOD

Ebreak 11 7 17 18 57.4
Eds 14 8 5 8 1
Egs 13 8 6 8 1
Esg 6 10 6 8 1
Evthres 6 21 19 8 1
Evtemp 20 6 18 22 1

It 8 17 1

Lgate 1 9 1.4e-9
Ldrain 2 5 1e-9
Lsource 3 7 3.1e-10
K1 LGATE LSOURCE 0.131

RLgate 1 9 14
RLdrain 2 5 10
RLsource 3 7 3

Mmed 16 6 8 8 MmedMOD
Mstro 16 6 8 8 MstroMOD
Mweak 16 21 8 8 MweakMOD


Rbreak 17 18 RbreakMOD 1
Rdrain 50 16 RdrainMOD 7e-3
Rgate 9 20 1.9
RSLC1 5 51 RSLCMOD 1e-6
RSLC2 5 50 1e3
Rsource 8 7 RsourceMOD .056
Rvthres 22 8 RvthresMOD 1
Rvtemp 18 19 RvtempMOD 1
S1a 6 12 13 8 S1AMOD
S1b 13 12 13 8 S1BMOD
S2a 6 15 14 13 S2AMOD
S2b 13 15 14 13 S2BMOD

Vbat 22 19 DC 1

ESLC 51 50  VALUE={(V(5,51)/ABS(V(5,51)))*(PWR(V(5,51)/(1e-6*50),3))}
.MODEL DbodyMOD D (IS=2.6E-13  RS=23.4e-3 IKF=5.5 N=0.995 TRS1=2.8e-3 TRS2=1.1e-5
+ CJO=3.7e-10 TT=35e-9 M=.46 XTI=5.5)
.MODEL DbreakMOD D (RS=0.5 IKF=.1 N=1 TRS1=3.0E-3 TRS2=-5e-5)
.MODEL DplcapMOD D (CJO=5.6e-10 IS=1e-30 N=10 M=.92)

.MODEL MmedMOD NMOS (VTO=3.25 KP=1.8 lambda=.001 IS=1e-30 N=10 TOX=1 L=1u W=1u RG=1.9)
.MODEL MstroMOD NMOS (VTO=3.68 KP=13.5 lambda=.001 IS=1e-30 N=10 TOX=1 L=1u W=1u)
.MODEL MweakMOD NMOS (VTO=2.83 kp=.03 lambda=.001 IS=1e-30 N=10 TOX=1 L=1u W=1u RG=19 RS=.1)

.MODEL RbreakMOD RES (TC1=1.08e-3 TC2=5e-7)
.MODEL RdrainMOD RES (TC1=17e-3 TC2=1e-4)
.MODEL RSLCMOD RES (TC1=1e-9 TC2=1e-4)
.MODEL RsourceMOD RES (TC1=3.3e-3 TC2=1e-9)
.MODEL RvthresMOD RES (TC1=-1.9e-3 TC2=-4.0e-6)
.MODEL RvtempMOD RES  (TC1=-2.9e-3 TC2=2.2e-6)

.MODEL S1AMOD VSWITCH (RON=1e-5 ROFF=0.1 VON=-7.1 VOFF=-4)
.MODEL S1BMOD VSWITCH (RON=1e-5 ROFF=0.1 VON=-4 VOFF=-7.1)
.MODEL S2AMOD VSWITCH (RON=1e-5 ROFF=0.1 VON=.01   VOFF=1.9)
.MODEL S2BMOD VSWITCH (RON=1e-5 ROFF=0.1 VON=1.9 VOFF=.01)

.ENDS

*Thermal Model Subcircuit
*HUF75307 SOT-223
.SUBCKT HUF75307TT_IS 7  1
*19Mar98

CTHERM1 7  6 7.5E-5
CTHERM2 6  5 3.5E-4
CTHERM3 5  4 1.2E-3
CTHERM4 4  3 1.5E-2
CTHERM5 3  2 6.9E-2
CTHERM6 2  1 4.5e-1


RTHERM1 7  6 7.5e-2
RTHERM2 6  5 2.0e-1
RTHERM3 5  4 1.2
RTHERM4 4  3 3.3
RTHERM5 3  2 28
RTHERM6 2  1 90

.ENDS
.SUBCKT HUF75309_IS  2 1 3
*Nom Temp=25 deg C    TA75309 19a 70milliohm 55vds
*30Jun97
*Revised 2/9/99

Ca 12 8 3.85e-10
Cb 15 14 4.15e-10
Cin 6 8 3.17e-10

Dbody 7 5 DbodyMOD
Dbreak 5 11 DbreakMOD
Dplcap 10 5 DplcapMOD

Ebreak 11 7 17 18 59.22
Eds 14 8 5 8 1
Egs 13 8 6 8 1
Esg 6 10 6 8 1
Evthres 6 21 19 8 1
Evtemp 20 6 18 22 1

It 8 17 1

Lgate 1 9 2.24e-9
Ldrain 2 5 1.00e-9
Lsource 3 7 2.09e-9


RLgate 1 9 22.4
RLdrain 2 5 10
RLsource 3 7 20.9

Mmed 16 6 8 8 MmedMOD
Mstro 16 6 8 8 MstroMOD
Mweak 16 21 8 8 MweakMOD


Rbreak 17 18 RbreakMOD 1
Rdrain 50 16 RdrainMOD 9.1e-3
Rgate 9 20 1.27
RSLC1 5 51 RSLCMOD 1e-6
RSLC2 5 50 1e3
Rsource 8 7 RsourceMOD 4.0e-2
Rvthres 22 8 RvthresMOD 1
Rvtemp 18 19 RvtempMOD 1
S1a 6 12 13 8 S1AMOD
S1b 13 12 13 8 S1BMOD
S2a 6 15 14 13 S2AMOD
S2b 13 15 14 13 S2BMOD

Vbat 22 19 DC 1

ESLC 51 50  VALUE={(V(5,51)/ABS(V(5,51)))*(PWR(V(5,51)/(1e-6*43),4.5))}

.MODEL DbodyMOD D (IS=3.00E-13  RS=1.04e-2 TRS1=1.89e-3 TRS2=0
+ CJO=5.25e-10 TT=3.09e-8 M=0.50)
.MODEL DbreakMOD D (RS=2.66e-1 TRS1=1.31e-4 TRS2=1.34e-5)
.MODEL DplcapMOD D (CJO=3.80e-10 IS=1e-30 N=10 M=0.79)

.MODEL MmedMOD NMOS (VTO=3.45 KP=2.00 IS=1e-30 N=10 TOX=1 L=1u W=1u RG=1.27)
.MODEL MstroMOD NMOS (VTO=3.95 KP=19.00 IS=1e-30 N=10 TOX=1 L=1u W=1u)
.MODEL MweakMOD NMOS (VTO=3.05 kp=0.05 IS=1e-30 N=10 TOX=1 L=1u W=1u RG=12.7 RS=.1)

.MODEL RbreakMOD RES (TC1=1.05e-3 TC2=1.21e-7)
.MODEL RdrainMOD RES (TC1=3.1e-2 TC2=3.7e-5)
.MODEL RSLCMOD RES (TC1=2.71e-3 TC2=1.07e-5)
.MODEL RsourceMOD RES (TC1=0 TC2=0)
.MODEL RvthresMOD RES (TC1=-3.31e-3 TC2=-4.31e-6)
.MODEL RvtempMOD RES (TC1=-1.62e-3  TC2=1.29e-6)

.MODEL S1AMOD VSWITCH (RON=1e-5 ROFF=0.1 VON=-6.00 VOFF=-3.00)
.MODEL S1BMOD VSWITCH (RON=1e-5 ROFF=0.1 VON=-3.00 VOFF=-6.00)
.MODEL S2AMOD VSWITCH (RON=1e-5 ROFF=0.1 VON=1.90 VOFF=4.90)
.MODEL S2BMOD VSWITCH (RON=1e-5 ROFF=0.1 VON=4.90 VOFF=1.90)

.ENDS

*Thermal Model Subcircuit
*T75309  date: 2/9/99
.SUBCKT T75309_IS Junction Ambient

CTHERM1 Junction c2 8e-4
CTHERM2 c2 c3 1e-3
CTHERM3 c3 c4 2E-3
CTHERM4 c4 c5 2.8e-3
CTHERM5 c5 c6 5.5E-3
CTHERM6 c6 ambient 1.6e-2

RTHERM1 Junction c2 1e-3
RTHERM2 c2 c3 7e-3
RTHERM3 c3 c4 9e-2
RTHERM4 c4 c5 4e-1
RTHERM5 c5 c6 6e-1
RTHERM6 c6 ambient 9.5e-1

.ends
.SUBCKT HUF75309T_IS  2 1 3
*Nom Temp=25 deg C    Ta-75309 in package sot-223
* 8Jan98

Ca 12 8 5.0e-10
Cb 15 14 5.0e-10
Cin 6 8 3.27e-10

Dbody 7 5 DbodyMOD
Dbreak 5 11 DbreakMOD
Dplcap 10 5 DplcapMOD

Ebreak 11 7 17 18 58.46
Eds 14 8 5 8 1
Egs 13 8 6 8 1
Esg 6 10 6 8 1
Evthres 6 21 19 8 1
Evtemp 20 6 18 22 1

It 8 17 1

Lgate 1 9 2.71e-9
Ldrain 2 5 1e-9
Lsource 3 7 0.56e-9


RLgate 1 9 27.1
RLdrain 2 5 10
RLsource 3 7 5.6

Mmed 16 6 8 8 MmedMOD
Mstro 16 6 8 8 MstroMOD
Mweak 16 21 8 8 MweakMOD


Rbreak 17 18 RbreakMOD 1
Rdrain 50 16 RdrainMOD 5e-3
Rgate 9 20 2.2
RSLC1 5 51 RSLCMOD 1e-6
RSLC2 5 50 1e3
Rsource 8 7 RsourceMOD 48e-3
Rvthres 22 8 RvthresMOD 1
Rvtemp 18 19 RvtempMOD 1
S1a 6 12 13 8 S1AMOD
S1b 13 12 13 8 S1BMOD
S2a 6 15 14 13 S2AMOD
S2b 13 15 14 13 S2BMOD

Vbat 22 19 DC 1

ESLC 51 50  VALUE={(V(5,51)/ABS(V(5,51)))*(PWR(V(5,51)/(1e-6*50),3))}

.MODEL DbodyMOD D (IS=3.4E-13  RS=2.3e-2 TRS1=2.2e-3 TRS2=1.03e-6
+ CJO=6.55e-10 TT=3.6e-8 M=0.57)
.MODEL DbreakMOD D (RS= 2.80e-1 TRS1=1e-4 TRS2=2.25e-5)
.MODEL DplcapMOD D (CJO=4.0e-10 IS=1e-30 N=10 M=0.75)

.MODEL MmedMOD NMOS (VTO=3.35 KP=3.0 IS=1e-30 N=10 TOX=1 L=1u W=1u RG=2.2)
.MODEL MstroMOD NMOS (VTO=3.65 KP=16 IS=1e-30 N=10 TOX=1 L=1u W=1u)
.MODEL MweakMOD NMOS (VTO=2.97 kp=0.125 IS=1e-30 N=10 TOX=1 L=1u W=1u RG=22 RS=.1)

.MODEL RbreakMOD RES (TC1=1.07e-3 TC2=-5.2e-7)
.MODEL RdrainMOD RES (TC1=5.25e-2 TC2=1.08e-4)
.MODEL RSLCMOD RES (TC1=3.3e-3 TC2=1.03e-7)
.MODEL RsourceMOD RES (TC1=0 TC2=0)
.MODEL RvthresMOD RES (TC1=-3.15e-3 TC2=-9.41e-6)
.MODEL RvtempMOD RES (TC1=-1.61e-3 TC2=1.37e-6)

.MODEL S1AMOD VSWITCH (RON=1e-5 ROFF=0.1 VON=-7.25 vOFF=-4.25)
.MODEL S1BMOD VSWITCH (RON=1e-5 ROFF=0.1 VON=-4.25 VOFF=-7.25)
.MODEL S2AMOD VSWITCH (RON=1e-5 ROFF=0.1 VON=0 VOFF=2.5)
.MODEL S2BMOD VSWITCH (RON=1e-5 ROFF=0.1 VON=2.5 VOFF=0)

.ENDS

*Thermal Model Subcircuit
*TA75309T3 8Jan98
.SUBCKT HUF75309TT_IS 7 1

CTHERM1 7  6 7.5E-5
CTHERM2 6  5 4E-4
CTHERM3 5  4 1.7E-3
CTHERM4 4  3 1.5E-2
CTHERM5 3  2 7.1E-2
CTHERM6 2  1 5.9e-1

RTHERM1 7  6 7e-2
RTHERM2 6  5 2.7e-1
RTHERM3 5  4 2
RTHERM4 4  3 3.5
RTHERM5 3  2 30
RTHERM6 2  1 80


.ENDS
.SUBCKT HUF75321D_IS  2 1 3
*Nom Temp=25 deg C    TA75321
*30Apr98


Ca 12 8 9.05e-10
Cb 15 14 8.95e-10
Cin 6 8 6.28e-10

Dbody 7 5 DbodyMOD
Dbreak 5 11 DbreakMOD
Dplcap 10 5 DplcapMOD

Ebreak 11 7 17 18 58.39
Eds 14 8 5 8 1
Egs 13 8 6 8 1
Esg 6 10 6 8 1
Evthres 6 21 19 8 1
Evtemp 20 6 18 22 1

It 8 17 1

Lgate 1 9 2.40e-9
Ldrain 2 5 1e-9
Lsource 3 7 3.14e-9


RLgate 1 9 24
RLdrain 2 5 10
RLsource 3 7 31.4

Mmed 16 6 8 8 MmedMOD
Mstro 16 6 8 8 MstroMOD
Mweak 16 21 8 8 MweakMOD


Rbreak 17 18 RbreakMOD 1
Rdrain 50 16 RdrainMOD 7.49e-3
Rgate 9 20 1.24
RSLC1 5 51 RSLCMOD 1e-6
RSLC2 5 50 1e3
Rsource 8 7 RsourceMOD 19.35e-3
Rvthres 22 8 RvthresMOD 1
Rvtemp 18 19 RvtempMOD 1
S1a 6 12 13 8 S1AMOD
S1b 13 12 13 8 S1BMOD
S2a 6 15 14 13 S2AMOD
S2b 13 15 14 13 S2BMOD

Vbat 22 19 DC 1

ESLC 51 50  VALUE={(V(5,51)/ABS(V(5,51)))*(PWR(V(5,51)/(1e-6*118),2.5))}

.MODEL DbodyMOD D (IS=1.14E-12  RS=9.51e-3 TRS1=1.96e-3 TRS2=2.64e-6
+ CJO=1.10e-9 TT=3.45e-8 M=0.53)
.MODEL DbreakMOD D (RS=1.65e-1 TRS1=4.83e-3 TRS2=0)
.MODEL DplcapMOD D (CJO=9.00e-10 IS=1e-30 N=10 M=0.85)

.MODEL MmedMOD NMOS (VTO=3.25 KP=1.75 IS=1e-30 N=10 TOX=1 L=1u W=1u RG=1.24)
.MODEL MstroMOD NMOS (VTO=3.65 KP=32.00 IS=1e-30 N=10 TOX=1 L=1u W=1u)
.MODEL MweakMOD NMOS (VTO=2.91 kp=0.07 IS=1e-30 N=10 TOX=1 L=1u W=1u RG=12.4 RS=.1)

.MODEL RbreakMOD RES (TC1=9.16e-4 TC2=1.45e-6)
.MODEL RdrainMOD RES (TC1=1.48e-2 TC2=8.64e-5)
.MODEL RSLCMOD RES (TC1=3.86e-3 TC2=1.26e-5)
.MODEL RsourceMOD RES (TC1=0 TC2=0)
.MODEL RvthresMOD RES (TC1=-3.37e-3 TC2=-9.72e-6)
.MODEL RvtempMOD RES (TC1=-1.72e-3 TC2=1.31e-6)

.MODEL S1AMOD VSWITCH (RON=1e-5 ROFF=0.1 VON=-8.15 VOFF=-5.15)
.MODEL S1BMOD VSWITCH (RON=1e-5 ROFF=0.1 VON=-5.15 VOFF=-8.15)
.MODEL S2AMOD VSWITCH (RON=1e-5 ROFF=0.1 VON= 1.00 VOFF= 4.00)
.MODEL S2BMOD VSWITCH (RON=1e-5 ROFF=0.1 VON= 4.00 VOFF= 1.00)

.ENDS

*Thermal Model Subcircuit
*TA75321
.subckt HUF75321DT_IS th tl
*30Apr98

CTHERM1 th 6 4.75e-7
CTHERM2 6  5 4.60e-4
CTHERM3 5  4 2.06e-3
CTHERM4 4  3 1.30e-2
CTHERM5 3  2 2.00e-1
CTHERM6 2  tl 8.05e-1

RTHERM1 th 6 2.65e-2
RTHERM2 6  5 9.00e-2
RTHERM3 5  4 6.60e-1
RTHERM4 4  3 8.80e-1
RTHERM5 3  2 4.60e-1
RTHERM6 2  tl 4.40e-1

.ends
.SUBCKT HUF75321P_IS  2 1 3
*Nom Temp=25 deg C    TA75321
*29Apr98

Ca 12 8 9.96e-10
Cb 15 14 9.83e-10
Cin 6 8 6.18e-10

Dbody 7 5 DbodyMOD
Dbreak 5 11 DbreakMOD
Dplcap 10 5 DplcapMOD

Ebreak 11 7 17 18 59.54
Eds 14 8 5 8 1
Egs 13 8 6 8 1
Esg 6 10 6 8 1
Evthres 6 21 19 8 1
Evtemp 20 6 18 22 1

It 8 17 1

Lgate 1 9 3.57e-9
Ldrain 2 5 1.00e-9
Lsource 3 7 4.25e-9


RLgate 1 9 35.7
RLdrain 2 5 10
RLsource 3 7 42.5

Mmed 16 6 8 8 MmedMOD
Mstro 16 6 8 8 MstroMOD
Mweak 16 21 8 8 MweakMOD


Rbreak 17 18 RbreakMOD 1
Rdrain 50 16 RdrainMOD 5.5e-3
Rgate 9 20 2.25
RSLC1 5 51 RSLCMOD 1e-6
RSLC2 5 50 1e3
Rsource 8 7 RsourceMOD 16.30e-3
Rvthres 22 8 RvthresMOD 1
Rvtemp 18 19 RvtempMOD 1
S1a 6 12 13 8 S1AMOD
S1b 13 12 13 8 S1BMOD
S2a 6 15 14 13 S2AMOD
S2b 13 15 14 13 S2BMOD

Vbat 22 19 DC 1

ESLC 51 50  VALUE={(V(5,51)/ABS(V(5,51)))*(PWR(V(5,51)/(1e-6*101),2.5))}

.MODEL DbodyMOD D (IS=7.47E-13  RS=6.45e-3 TRS1=2.01e-3 TRS2=1.21e-6
+ CJO=1.02e-9 TT=3.21e-8 M=0.50)
.MODEL DbreakMOD D (RS=2.01e-1 TRS1=3.62e-3 TRS2=6.01e-7)
.MODEL DplcapMOD D (CJO=9e-10 IS=1e-30 N=10 M=0.85)

.MODEL MmedMOD NMOS (VTO=3.25 KP=1.75 IS=1e-30 N=10 TOX=1 L=1u W=1u RG=2.25)
.MODEL MstroMOD NMOS (VTO=3.65 KP=32.00 IS=1e-30 N=10 TOX=1 L=1u W=1u)
.MODEL MweakMOD NMOS (VTO=2.91 kp=0.07 IS=1e-30 N=10 TOX=1 L=1u W=1u RG=22.5 RS=.1)

.MODEL RbreakMOD RES (TC1=1.05e-3 TC2=1.21e-7)
.MODEL RdrainMOD RES (TC1=2.40e-2 TC2=1.02e-6)
.MODEL RSLCMOD RES (TC1=2.07e-4 TC2=4.67e-5)
.MODEL RsourceMOD RES (TC1=0 TC2=0)
.MODEL RvthresMOD RES (TC1=-3.01e-3 TC2=-8.85e-6)
.MODEL RvtempMOD RES (TC1=-1.96e-3 TC2=1.39e-6)

.MODEL S1AMOD VSWITCH (RON=1e-5 ROFF=0.1 VON=-7.85 VOFF=-4.85)
.MODEL S1BMOD VSWITCH (RON=1e-5 ROFF=0.1 VON=-4.85 VOFF=-7.85)
.MODEL S2AMOD VSWITCH (RON=1e-5 ROFF=0.1 VON=-0 VOFF=3.0)
.MODEL S2BMOD VSWITCH (RON=1e-5 ROFF=0.1 VON=3.0 VOFF=-0)

.ENDS

*Thermal Model Subcircuit
*TA75321
.subckt HUF75321T_IS 7 1
*29Apr98

CTHERM1 7  6 4.90e-7
CTHERM2 6  5 4.50e-4
CTHERM3 5  4 1.62e-3
CTHERM4 4  3 1.30e-2
CTHERM5 3  2 1.20e-1
CTHERM6 2  1 1.20


RTHERM1 7  6 2.40e-2
RTHERM2 6  5 7.80e-2
RTHERM3 5  4 4.55e-1
RTHERM4 4  3 6.80e-1
RTHERM5 3  2 4.10e-1
RTHERM6 2  1 3.90e-1

.ends
.SUBCKT HUF75329P3_IS  2 1 3
*Nom Temp=25 deg C
*21Sep98

Ca 12 8 1.720e-9
Cb 15 14 1.52e-9
Cin 6 8 9.61e-10

Dbody 7 5 DbodyMOD
Dbreak 5 11 DbreakMOD
Dplcap 10 5 DplcapMOD

Ebreak 11 7 17 18 58.13
Eds 14 8 5 8 1
Egs 13 8 6 8 1
Esg 6 10 6 8 1
Evthres 6 21 19 8 1
Evtemp 20 6 18 22 1

It 8 17 1

Lgate 1 9 2.86e-9
Ldrain 2 5 1.00e-9
Lsource 3 7 2.69e-9

RLgate 1 9 26.9
RLdrain 2 5 10
RLsource 3 7 28.6

Mmed 16 6 8 8 MmedMOD
Mstro 16 6 8 8 MstroMOD
Mweak 16 21 8 8 MweakMOD

Rbreak 17 18 RbreakMOD 1
Rdrain 50 16 RdrainMOD 1.00e-3
Rgate 9 20 1.52
RSLC1 5 51 RSLCMOD 1e-6
RSLC2 5 50 1e3
Rsource 8 7 RsourceMOD 13.85e-3
Rvthres 22 8 RvthresMOD 1
Rvtemp 18 19 RvtempMOD 1
S1a 6 12 13 8 S1AMOD
S1b 13 12 13 8 S1BMOD
S2a 6 15 14 13 S2AMOD
S2b 13 15 14 13 S2BMOD

Vbat 22 19 DC 1

ESLC 51 50  VALUE={(V(5,51)/ABS(V(5,51)))*(PWR(V(5,51)/(1e-6*135),3.5))}

.MODEL DbodyMOD D (IS=7.50E-13  RS=5.05e-3 TRS1=2.210e-3 TRS2=1.02e-6
+ CJO=1.51e-9 TT=4.05e-8 M=0.50)
.MODEL DbreakMOD D (RS=2.14e-1 TRS1=9.62e-4 TRS2=1.23e-6)
.MODEL DplcapMOD D (CJO=13.5e-10 IS=1e-30 N=10 M=0.85)

.MODEL MmedMOD NMOS (VTO=3.250 KP=2.50 IS=1e-30 N=10 TOX=1 L=1u W=1u RG=1.52)
.MODEL MstroMOD NMOS (VTO=3.80 KP=70.00 IS=1e-30 N=10 TOX=1 L=1u W=1u)
.MODEL MweakMOD NMOS (VTO=2.91 kp=0.06 IS=1e-30 N=10 TOX=1 L=1u W=1u RG=15.20 RS=.1)

.MODEL RbreakMOD RES (TC1=1.05E-3 TC2=1.94E-7)
.MODEL RdrainMOD RES (TC1=8.04E-2 TC2=1.37E-4)
.MODEL RSLCMOD RES (TC1=4.83E-3 TC2=1.16E-6)
.MODEL RsourceMOD RES (TC1=0 TC2=0)
.MODEL RvthresMOD RES (TC1=-3.43E-3 TC2=-1.63E-5)
.MODEL RvtempMOD RES (TC1=-1.35E-3 TC2=1.16E-6)

.MODEL S1AMOD VSWITCH (RON=1e-5 ROFF=0.1 VON=-7.90 VOFF=-4.90)
.MODEL S1BMOD VSWITCH (RON=1e-5 ROFF=0.1 VON=-4.90 VOFF=-7.90)
.MODEL S2AMOD VSWITCH (RON=1e-5 ROFF=0.1 VON=-0.50 VOFF=2.50)
.MODEL S2BMOD VSWITCH (RON=1e-5 ROFF=0.1 VON=2.50 VOFF=-0.50)

.ENDS

*Thermal Model Subcircuit
.SUBCKT t75329p3_IS TH TL

CTHERM1 th 6 2.80e-3
CTHERM2 6 5 1.00e-2
CTHERM3 5 4 6.80e-3
CTHERM4 4 3 7.00e-3
CTHERM5 3 2 2.2e-2
CTHERM6 2 tl 5.1e-2

RTHERM1 th 6 7.94e-3
RTHERM2 6 5 1.98e-2
RTHERM3 5 4 5.57e-2
RTHERM4 4 3 3.13e-1
RTHERM5 3 2 4.61e-1
RTHERM6 2 tl 7.26e-2

.ENDS

.SUBCKT HUF75332_IS  2 1 3
*Nom Temp=25 deg C
* Last Revision Aug 21, 1997
* revised 17Feb99

Ca 12 8 1.8e-9
Cb 15 14 1.73e-9
Cin 6 8 1.19e-9

Dbody 7 5 DbodyMOD
Dbreak 5 11 DbreakMOD
Dplcap 10 5 DplcapMOD

Ebreak 11 7 17 18 58.85
Eds 14 8 5 8 1
Egs 13 8 6 8 1
Esg 6 10 6 8 1
Evthres 6 21 19 8 1
Evtemp 20 6 18 22 1

It 8 17 1

Lgate 1 9 1e-9
Ldrain 2 5 1e-9
Lsource 3 7 1e-9
K1 Lsource Lgate 0.0085

RLgate 1 9 10
RLdrain 2 5 10
RLsource 3 7 10

Mmed 16 6 8 8 MmedMOD
Mstro 16 6 8 8 MstroMOD
Mweak 16 21 8 8 MweakMOD

Rbreak 17 18 RbreakMOD 1
Rdrain 50 16 RdrainMOD 4.5e-3
RSLC1 5 51 RSLCMOD 1e-6
RSLC2 5 50 1e3
Rgate 9 20 1.3
Rsource 8 7 RsourceMOD 5.95e-3
Rvthres 22 8 RvthresMOD 1
Rvtemp 18 19 RvtempMOD 1

S1a 6 12 13 8 S1AMOD
S1b 13 12 13 8 S1BMOD
S2a 6 15 14 13 S2AMOD
S2b 13 15 14 13 S2BMOD

Vbat 22 19 DC 1

ESLC 51 50  VALUE={(V(5,51)/ABS(V(5,51)))*(PWR(V(5,51)/(1e-6*180),4.6))}

.MODEL DbodyMOD D (IS=1.3E-12 RS=3.0e-3 IKF=20 XTI=6 TRS1=2.7e-3 TRS2=7e-7 CJO=1.7e-9 TT=4.0e-8 M=0.45 vj=0.75)
.MODEL DbreakMOD D (RS=1.71e-2 IKF=1e-5 TRS1=-4e-4 TRS2=-1.55e-5)
.MODEL DplcapMOD D (CJO=1.8e-9 IS=1e-30 M=0.9 vj=1.45 )


.MODEL MmedMOD NMOS (VTO=3.183 KP=2 IS=1e-30 N=10 TOX=1 L=1u W=1u RG=1.3)
.MODEL MstroMOD NMOS (VTO=3.66 KP=51.5 IS=1e-30 N=10 TOX=1 L=1u W=1u)
.MODEL MweakMOD NMOS (VTO=2.703 KP=0.008 IS=1e-30 N=10 TOX=1 L=1u W=1u RG=13)


.MODEL RbreakMOD RES (TC1=1.05e-3 TC2=4.5e-7)
.MODEL RdrainMOD RES (TC1=1.16e-2 TC2=1.7e-5)
.MODEL RSLCMOD RES (TC1=3.96e-3 TC2=2.7e-6)
.MODEL RsourceMOD RES (TC1=1e-3 TC2=1e-5)
.MODEL RvthresMOD RES (TC1=-2.8e-3 TC2=-1.0e-5)
.MODEL RvtempMOD RES (TC1=-2.75e-3 TC2= 5.0e-7)

.MODEL S1AMOD VSWITCH (RON=1e-5 ROFF=0.1 VON=-8 VOFF=-3)
.MODEL S1BMOD VSWITCH (RON=1e-5 ROFF=0.1 VON=-3 VOFF=-8)
.MODEL S2AMOD VSWITCH (RON=1e-5 ROFF=0.1 VON=0 VOFF=0.5)
.MODEL S2BMOD VSWITCH (RON=1e-5 ROFF=0.1 VON=0.5 VOFF=0)

.ENDS

*Thermal Model Subcircuit
*11Feb99
.SUBCKT HUF75332T_IS TH TL

CTHERM1 TH c2 4.00E-3
CTHERM2 c2 c3 7.00E-3
CTHERM3 c3 c4 7.50E-3
CTHERM4 c4 c5 8.00E-3
CTHERM5 c5 c6 1.85E-2
CTHERM6 c6 TL 12.55


RTHERM1 TH c2 7.09e-3
RTHERM2 c2 c3 1.77e-2
RTHERM3 c3 c4 4.97e-2
RTHERM4 c4 c5 2.79e-1
RTHERM5 c5 c6 4.21e-1
RTHERM6 c6 TL 5.58e-2
.ENDS
.SUBCKT HUF75333P3_IS  2 1 3
*Nom Temp=25 deg C
* Last Revision Aug 21, 1997

Ca 12 8 1.8e-9
Cb 15 14 1.73e-9
Cin 6 8 1.19e-9

Dbody 7 5 DbodyMOD
Dbreak 5 11 DbreakMOD
Dplcap 10 5 DplcapMOD

Ebreak 11 7 17 18 58.85
Eds 14 8 5 8 1
Egs 13 8 6 8 1
Esg 6 10 6 8 1
Evthres 6 21 19 8 1
Evtemp 20 6 18 22 1

It 8 17 1

Lgate 1 9 1e-9
Ldrain 2 5 1e-9
Lsource 3 7 1e-9

RLgate 1 9 10
RLdrain 2 5 10
RLsource 3 7 10

Mmed 16 6 8 8 MmedMOD
Mstro 16 6 8 8 MstroMOD
Mweak 16 21 8 8 MweakMOD

Rbreak 17 18 RbreakMOD 1
Rdrain 50 16 RdrainMOD 4.5e-3
RSLC1 5 51 RSLCMOD 1e-6
RSLC2 5 50 1e3
Rgate 9 20 1
Rsource 8 7 RsourceMOD 5.95e-3
Rvthres 22 8 RvthresMOD 1
Rvtemp 18 19 RvtempMOD 1

S1a 6 12 13 8 S1AMOD
S1b 13 12 13 8 S1BMOD
S2a 6 15 14 13 S2AMOD
S2b 13 15 14 13 S2BMOD

Vbat 22 19 DC 1

ESLC 51 50  VALUE={(V(5,51)/ABS(V(5,51)))*(PWR(V(5,51)/(1e-6*180),4))}

.MODEL DbodyMOD D (IS=1.3E-12 RS=0.003 IKF=20 XTI=6 TRS1=2.7e-3 TRS2=7e-7 CJO=1.7e-9 TT=40e-8 M=0.45 vj=0.75)
.MODEL DbreakMOD D (RS=.11 IKF=1e-5 TRS1=-4e-4 TRS2=-1.55e-5)
.MODEL DplcapMOD D (CJO=1.8e-9 IS=1e-30 N=1 M=0.9 vj=1.45 FC=0.5)


.MODEL MmedMOD NMOS (VTO=3.183 KP=2 IS=1e-30 N=10 TOX=1 L=1u W=1u RG=1)
.MODEL MstroMOD NMOS (VTO=3.66 KP=51.5 IS=1e-30 N=10 TOX=1 L=1u W=1u)
.MODEL MweakMOD NMOS (VTO=2.703 KP=0.008 IS=1e-30 N=10 TOX=1 L=1u W=1u RG=10)

.MODEL RbreakMOD RES (TC1=1.05e-3 TC2=4.5e-7)
.MODEL RdrainMOD RES (TC1=1.16e-2 TC2=1.7e-5)
.MODEL RSLCMOD RES (TC1=3.96e-3 TC2=2.7e-6)
.MODEL RsourceMOD RES (TC1=1e-3 TC2=1e-5)
.MODEL RvthresMOD RES (TC1=-2.8e-3 TC2=-1.0e-5)
.MODEL RvtempMOD RES (TC1=-2.75e-3 TC2=0.5e-6)

.MODEL S1AMOD VSWITCH (RON=1e-5 ROFF=0.1 VON=-8 VOFF=-3)
.MODEL S1BMOD VSWITCH (RON=1e-5 ROFF=0.1 VON=-3 VOFF=-8)
.MODEL S2AMOD VSWITCH (RON=1e-5 ROFF=0.1 VON=0 VOFF=0.5)
.MODEL S2BMOD VSWITCH (RON=1e-5 ROFF=0.1 VON=0.5 VOFF=0)

.ENDS

*Thermal Model Subcircuit
*HUF75333
.SUBCKT HUF75333_ISt Junction Ambient

CTHERM1 Junction c2 4.9E-4
CTHERM2 c2 c3 4.5E-3
CTHERM3 c3 c4 6E-3
CTHERM4 c4 c5 8.5E-3
CTHERM5 c5 c6 1E-2
CTHERM6 c6 Ambient 5E-2

RTHERM1 Junction c2 6e-4
RTHERM2 c2 c3 6.8e-3
RTHERM3 c3 c4 3.3e-2
RTHERM4 c4 c5 9.7e-2
RTHERM5 c5 c6 3.3e-1
RTHERM6 c6 Ambient 3.6e-1

.ENDS

.SUBCKT HUF75337_IS  2 1 3
*Nom Temp=25 deg C    3 Nmos no ESD model
* Last Revision August 15, 1997

Ca 12 8 2.4e-9
Cb 15 14 2.4e-9
Cin 6 8 1.63e-9

Dbody 7 5 DbodyMOD
Dbreak 5 11 DbreakMOD
Dplcap 10 5 DplcapMOD

Ebreak 11 7 17 18 58.5
Eds 14 8 5 8 1
Egs 13 8 6 8 1
Esg 6 10 6 8 1
Evthres 6 21 19 8 1
Evtemp 20 6 18 22 1

It 8 17 1

Lgate 1 9 3.58e-9
Ldrain 2 5 1e-9
Lsource 3 7 7.7e-10

RLgate 1 9 35.8
RLdrain 2 5 10
RLsource 3 7 7.7

Mmed 16 6 8 8 MmedMOD
Mstro 16 6 8 8 MstroMOD
Mweak 16 21 8 8 MweakMOD

Rbreak 17 18 RbreakMOD 1
Rdrain 50 16 RdrainMOD 2.3e-3
RSLC1 5 51 RSLCMOD 1e-6
RSLC2 5 50 1e3
Rgate 9 20 1
Rin   6  8 1e9
Rsource 8 7 RsourceMOD 6.0e-3
Rvthres 22 8 RvthresMOD 1
Rvtemp 18 19 RvtempMOD 1

S1a 6 12 13 8 S1AMOD
S1b 13 12 13 8 S1BMOD
S2a 6 15 14 13 S2AMOD
S2b 13 15 14 13 S2BMOD

Vbat 22 19 DC 1

ESLC 51 50  VALUE={(V(5,51)/ABS(V(5,51)))*(PWR(V(5,51)/(1e-6*180),5.3))}

.MODEL DbodyMOD D (IS=1.8E-12 RS=0.003 IKF=20 N=.99 XTI=4.5 TRS1=2e-3 TRS2=9e-9 CJO=2.6e-9 TT=1.1e-7 M=0.48 vj=0.75)
.MODEL DbreakMOD D (RS=.096 IKF=0.9e-5 TRS1=1.5e-3 TRS2=-4.7e-5)
.MODEL DplcapMOD D (CJO=2.5e-9 IS=1e-30 N=1 M=.97 vj=1.45 FC=0.5)


.MODEL MmedMOD NMOS (VTO=3.2 KP=2 IS=1e-30 N=10 TOX=1 L=1u W=1u RG=1)
.MODEL MstroMOD NMOS (VTO=3.71 KP=63 IS=1e-30 N=10 TOX=1 L=1u W=1u)
.MODEL MweakMOD NMOS (VTO=2.7 KP=0.008 IS=1e-30 N=10 TOX=1 L=1u W=1u RG=10)


.MODEL RbreakMOD RES (TC1=1.17e-3 TC2=-1.25e-6)
.MODEL RdrainMOD RES (TC1=1.9e-2 TC2=0.5e-5)
.MODEL RSLCMOD RES (TC1=2.8e-3 TC2=1e-9)
.MODEL RsourceMOD RES (TC1=1e-3 TC2=1e-5)
.MODEL RvthresMOD RES (TC1=-3e-3 TC2=-3e-6)
.MODEL RvtempMOD RES (TC1=-2.8e-3 TC2=1e-6)

.MODEL S1AMOD VSWITCH (RON=1e-5 ROFF=0.1 VON=-8 VOFF=-4)
.MODEL S1BMOD VSWITCH (RON=1e-5 ROFF=0.1 VON=-4 VOFF=-8)
.MODEL S2AMOD VSWITCH (RON=1e-5 ROFF=0.1 VON=0 VOFF=1.5)
.MODEL S2BMOD VSWITCH (RON=1e-5 ROFF=0.1 VON=1.5 VOFF=0)

.ENDS


*Thermal Model Subcircuit
*Based on 76137 Data and thermal model
* 2/8/99
.SUBCKT T75337_IS Junction Case

CTHERM1 Junction c2 .8e-6
CTHERM2 c2 c3 1.6E-6
CTHERM3 c3 c4 4.8e-3
CTHERM4 c4 c5 .76e-2
CTHERM5 c5 c6 2.4e-2
CTHERM6 c6 Case 1.5

RTHERM1 Junction c2 1.3E-4
RTHERM2 c2 c3 1.8e-3
RTHERM3 c3 c4 3.7e-2
RTHERM4 c4 c5 2.3e-1
RTHERM5 c5 c6 3.4e-1
RTHERM6 c6 Case 6.4e-2
.ends
.SUBCKT HUF75339_IS  2 1 3
*Nom Temp=25 deg C UltraFET 75A 12milliohm
*Date rev. 23Feb99 (orig. 10-17-97)

Ca 12 8 2.8e-9
Cb 15 14 2.8e-9
Cin 6 8 1.77e-9

Dbody 7 5 DbodyMOD
Dbreak 5 11 DbreakMOD
Dplcap 10 5 DplcapMOD

Ebreak 11 7 17 18 59.2
Eds 14 8 5 8 1
Egs 13 8 6 8 1
Esg 6 10 6 8 1
Evthres 6 21 19 8 1
Evtemp 20 6 18 22 1

It 8 17 1

Lgate 1 9 2.0e-9
Ldrain 2 5 1e-9
Lsource 3 7 4.7e-10
K1 Lsource Lgate .0302

RLgate 1 9 20
RLdrain 2 5 10
RLsource 3 7 4.7

Mmed 16 6 8 8 MmedMOD
Mstro 16 6 8 8 MstroMOD
Mweak 16 21 8 8 MweakMOD


Rbreak 17 18 RbreakMOD 1
Rdrain 50 16 RdrainMOD 1.95e-3
Rgate 9 20 .34
RSLC1 5 51 RSLCMOD 1e-6
RSLC2 5 50 1e3
Rsource 8 7 RsourceMOD 6.0e-3
Rvthres 22 8 RvthresMOD 1
Rvtemp 18 19 RvtempMOD 1
S1a 6 12 13 8 S1AMOD
S1b 13 12 13 8 S1BMOD
S2a 6 15 14 13 S2AMOD
S2b 13 15 14 13 S2BMOD

Vbat 22 19 DC 1

ESLC 51 50  VALUE={(V(5,51)/ABS(V(5,51)))*(PWR(V(5,51)/(1e-6*230),4))}

.MODEL DbodyMOD D (IS=3.5E-12 N=1.02 RS=3.02e-3 XTI=5.5 TRS1=3e-3 TRS2=4e-6 CJO=2.9e-9 TT=4.35e-8 M=0.5)
.MODEL DbreakMOD D (RS=8.5e-2 TRS1=8e-4 TRS2=1e-7)
.MODEL DplcapMOD D (CJO=2.25e-9 IS=1e-30 N=10 M= 0.8)

.MODEL MmedMOD NMOS (VTO=3.1 KP=1.5 IS=1e-30 N=10 TOX=1 L=1u W=1u Rg=0.34)
.MODEL MstroMOD NMOS (VTO=3.73 KP=86.5 IS=1e-30 N=10 TOX=1 L=1u W=1u)
.MODEL MweakMOD NMOS (VTO=2.7 kp=0.01 IS=1e-30 N=10 TOX=1 L=1u W=1u Rg=3.4)

.MODEL RbreakMOD RES (TC1=1.08e-3 TC2=-2.5e-7)
.MODEL RdrainMOD RES (TC1=2.05e-2 TC2=1.6e-5)
.MODEL RSLCMOD RES (TC1=6e-3 TC2=-2.8e-6)
.MODEL RsourceMOD RES (TC1=5.5e-4 TC2=1.75e-5)
.MODEL RvthresMOD RES (TC1=-3.65e-3 TC2=-6e-6)
.MODEL RvtempMOD RES (TC1=-2.3e-3 TC2=-4e-6)

.MODEL S1AMOD VSWITCH (RON=1e-5 ROFF=0.1 VON=-9 VOFF=-5.5)
.MODEL S1BMOD VSWITCH (RON=1e-5 ROFF=0.1 VON=-5.5 VOFF=-9)
.MODEL S2AMOD VSWITCH (RON=1e-5 ROFF=0.1 VON=0 VOFF=2.1)
.MODEL S2BMOD VSWITCH (RON=1e-5 ROFF=0.1 VON=2.1 VOFF=0)

.ENDS


*Thermal Model Subcircuit
*11Feb99
.SUBCKT HUF75339T_IS TH TL

CTHERM1 TH c2 5.00e-3
CTHERM2 c2 c3 1.90e-2
CTHERM3 c3 c4 7.95e-3
CTHERM4 c4 c5 9.00e-3
CTHERM5 c5 c6 2.95e-2
CTHERM6 c6 TL 12.55

RTHERM1 TH c2 5.04e-3
RTHERM2 c2 c3 1.25e-2
RTHERM3 c3 c4 3.54e-2
RTHERM4 c4 c5 1.98e-1
RTHERM5 c5 c6 2.99e-1
RTHERM6 c6 TL 3.97e-2

.ends
.SUBCKT HUF75343_IS  2 1 3
*Nom Temp=25 deg C    TA75343 75a 9milliohm 55vds
*Updated 9Feb99  (orig 17Jun97)

Ca 12 8 3.95e-9
Cb 15 14 5.05e-9
Cin 6 8 2.68e-9

Dbody 7 5 DbodyMOD
Dbreak 5 11 DbreakMOD
Dplcap 10 5 DplcapMOD

Ebreak 11 7 17 18 58.39
Eds 14 8 5 8 1
Egs 13 8 6 8 1
Esg 6 10 6 8 1
Evthres 6 21 19 8 1
Evtemp 20 6 18 22 1

It 8 17 1

Lgate 1 9 2.60e-9
Ldrain 2 5 1e-9
Lsource 3 7 1.10e-9
KGATE LSOURCE LGATE 0.0085

RLgate 1 9 26.0
RLdrain 2 5 10.0
RLsource 3 7 11.0

Mmed 16 6 8 8 MmedMOD
Mstro 16 6 8 8 MstroMOD
Mweak 16 21 8 8 MweakMOD


Rbreak 17 18 RbreakMOD 1
Rdrain 50 16 RdrainMOD 0.70e-3
Rgate 9 20 0.36
RSLC1 5 51 RSLCMOD 1e-6
RSLC2 5 50 1e3
Rsource 8 7 RsourceMOD 4.79e-3
Rvthres 22 8 RvthresMOD 1
Rvtemp 18 19 RvtempMOD 1
S1a 6 12 13 8 S1AMOD
S1b 13 12 13 8 S1BMOD
S2a 6 15 14 13 S2AMOD
S2b 13 15 14 13 S2BMOD

Vbat 22 19 DC 1

ESLC 51 50  VALUE={(V(5,51)/ABS(V(5,51)))*(PWR(V(5,51)/(1e-6*609),2.5))}

.MODEL DbodyMOD D (IS=2.35E-12  RS=2.21e-3 TRS1=2.47e-3 TRS2=3.97e-11
+ CJO=6.34e-9 TT=3.95e-8 M=0.6)
.MODEL DbreakMOD D (RS=9.1e-2 TRS1=-2.24e-4 TRS2=5.23e-6)
.MODEL DplcapMOD D (CJO=2.15e-9 IS=1e-30 N=10 M=0.73)

.MODEL MmedMOD NMOS (VTO=3.30 KP=5.49 IS=1e-30 N=10 TOX=1 L=1u W=1u RG=0.36)
.MODEL MstroMOD NMOS (VTO=3.87 KP=145 IS=1e-30 N=10 TOX=1 L=1u W=1u)
.MODEL MweakMOD NMOS (VTO=2.92 kp=0.05 IS=1e-30 N=10 TOX=1 L=1u W=1u RG=3.6 RS=.1)

.MODEL RbreakMOD RES (TC1=1.04e-3 TC2=3.43e-7)
.MODEL RdrainMOD RES (TC1=4.44e-2 TC2=8.04e-5)
.MODEL RSLCMOD RES (TC1=1.02e-4 TC2=2.07e-6)
.MODEL RsourceMOD RES (TC1=0 TC2=0)
.MODEL RvthresMOD RES (TC1=-3.49e-3 TC2=-1.27e-5)
.MODEL RvtempMOD RES (TC1=-1.93e-3 TC2=1.38e-6)

.MODEL S1AMOD VSWITCH (RON=1e-5 ROFF=0.1 VON=-6.90 VOFF=-3.90)
.MODEL S1BMOD VSWITCH (RON=1e-5 ROFF=0.1 VON=-3.90 VOFF=-6.90)
.MODEL S2AMOD VSWITCH (RON=1e-5 ROFF=0.1 VON=0.39 VOFF=3.39)
.MODEL S2BMOD VSWITCH (RON=1e-5 ROFF=0.1 VON=3.39 VOFF=0.39)

.ENDS


*Thermal Model Subcircuit
*12Feb99
.SUBCKT HUF75343T_IS TH TL

CTHERM1 TH c2 6.15e-3
CTHERM2 c2 c3 2.50e-2
CTHERM3 c3 c4 1.40E-2
CTHERM4 c4 c5 1.25E-2
CTHERM5 c5 c6 4.85E-2
CTHERM6 c6 TL 12.55

RTHERM1 TH c2 3.76E-3
RTHERM2 c2 c3 9.35e-3
RTHERM3 c3 c4 2.64e-2
RTHERM4 c4 c5 1.48e-1
RTHERM5 c5 c6 2.23e-1
RTHERM6 c6 TL 2.96e-2
.ENDS
.SUBCKT HUF75344p3_IS 2 1 3 ;rev 3Feb98

CA 12 8 4.9e-9
CB 15 14 4.75e-9
CIN 6 8 2.85e-9

DBODY 7 5 DBODYMOD
DBREAK 5 11 DBREAKMOD
DPLCAP 10 5 DPLCAPMOD

EBREAK 11 7 17 18 59.7
EDS 14 8 5 8 1
EGS 13 8 6 8 1
ESG 6 10 6 8 1
EVTHRES 6 21 19 8 1
EVTEMP 20 6 18 22 1

IT 8 17 1

LGATE 1 9 2.6e-9
LDRAIN 2 5 1e-9
LSOURCE 3 7 1.1e-9

RLGATE 1 9 26
RLDRAIN 2 5 10
RLSOURCE 3 7 11

MMED 16 6 8 8 MMEDMOD
MSTRO 16 6 8 8 MSTROMOD
MWEAK 16 21 8 8 MWEAKMOD

RBREAK 17 18 RBREAKMOD 1
RDRAIN 50 16 RDRAINMOD 1.94e-3
RGATE 9 20 0.36
RSLC1 5 51 RSLCMOD 1e-6
RSLC2 5 50 1e3
RSOURCE 8 7 RSOURCEMOD 3.5e-3
RVTHRES 22 8 RVTHRESMOD 1
RVTEMP 18 19 RVTEMPMOD 1

S1A 6 12 13 8 S1AMOD
S1B 13 12 13 8 S1BMOD
S2A 6 15 14 13 S2AMOD
S2B 13 15 14 13 S2BMOD

VBAT 22 19 DC 1

ESLC 51 50 VALUE={(V(5,51)/ABS(V(5,51)))*(PWR(V(5,51)/(1e-6*400),3))}

.MODEL DBODYMOD D (IS=2.95e-12 RS=2.6e-3 TRS1=1.05e-3 TRS2=5e-7
+CJO=5.19e-9 TT=5.9e-8 M=0.55)
.MODEL DBREAKMOD D (RS=1.65e-1 IKF=30 TRS1=1.15e-4 TRS2=2.27e-6)
.MODEL DPLCAPMOD D (CJO=5.40e-9 IS=1e-30 N=1 M=0.88 )

.MODEL MMEDMOD NMOS (VTO=3.29 KP=5.5 IS=1e-30 N=10 TOX=1 L=1u W=1u RG=.36)
.MODEL MSTROMOD NMOS (VTO=3.83 KP=123 IS=1e-30 N=10 TOX=1 L=1u W=1u)
.MODEL MWEAKMOD NMOS (VTO=2.9 KP=0.04 IS=1e-30 N=10 TOX=1 L=1u W=1u RG=3.6)

.MODEL RBREAKMOD RES (TC1=1.15e-3 TC2=2e-7)
.MODEL RDRAINMOD RES (TC1=1.37e-2 TC2=3.85e-5)
.MODEL RSLCMOD RES (TC1=1.45e-4 TC2=2.11e-6)
.MODEL RSOURCEMOD RES (TC1=0 TC2=0)
.MODEL RVTHRESMOD RES (TC1=-3.7e-3  TC2=-1.6e-5)
.MODEL RVTEMPMOD RES (TC1=-2.4e-3  TC2=7e-7)

.MODEL S1AMOD VSWITCH (RON=1e-5 ROFF=0.1 VON=-6.9 VOFF= -3.9)
.MODEL S1BMOD VSWITCH (RON=1e-5 ROFF=0.1 VON=-3.9 VOFF= -6.9)
.MODEL S2AMOD VSWITCH (RON=1e-5 ROFF=0.1 VON=-2.99 VOFF= 2.39)
.MODEL S2BMOD VSWITCH (RON=1e-5 ROFF=0.1 VON=2.39 VOFF= -2.99)
.ENDS

.SUBCKT t75344p3_IS TH TL
*Thermal Model Subcircuit
*5Feb99

CTHERM1 TH c2 5.0e-3
CTHERM2 c2 c3 1.0e-2
CTHERM3 c3 c4 1.30E-2
CTHERM4 c4 c5 1.5E-2
CTHERM5 c5 c6 2.2E-2
CTHERM6 c6 TL 8.5e-2

RTHERM1 TH c2 6.0E-4
RTHERM2 c2 c3 3.5e-3
RTHERM3 c3 c4 2.5e-2
RTHERM4 c4 c5 4.8e-2
RTHERM5 c5 c6 1.6e-1
RTHERM6 c6 TL 1.8e-1
.ENDS


.SUBCKT HUF75345_IS  2 1 3
*Nom Temp=25 deg C
* Last Revision  3 Feb 1999

Ca 12 8 5.55e-9
Cb 15 14 5.55e-9
Cin 6 8 3.45e-9

Dbody 7 5 DbodyMOD
Dbreak 5 11 DbreakMOD
Dplcap 10 5 DplcapMOD

Ebreak 11 7 17 18 56.7
Eds 14 8 5 8 1
Egs 13 8 6 8 1
Esg 6 10 6 8 1
Evthres 6 21 19 8 1
Evtemp 20 6 18 22 1

It 8 17 1

Lgate 1 9 2.6e-9
Ldrain 2 5 1e-9
Lsource 3 7 1.1e-9
Kgate Lsource Lgate 0.0085


RLgate 1 9 26
RLdrain 2 5 10
RLsource 3 7 11

Mmed 16 6 8 8 MmedMOD
Mstro 16 6 8 8 MstroMOD
Mweak 16 21 8 8 MweakMOD

Rbreak 17 18 RbreakMOD 1
Rdrain 50 16 RdrainMOD 1e-4
Rgate 9 20 0.36
RSLC1 5 51 RSLCMOD 1e-6
RSLC2 5 50 1e3
Rsource 8 7 RsourceMOD 3.15e-3
Rvthres 22 8 RvthresMOD 1
Rvtemp 18 19 RvtempMOD 1

S1a 6 12 13 8 S1AMOD
S1b 13 12 13 8 S1BMOD
S2a 6 15 14 13 S2AMOD
S2b 13 15 14 13 S2BMOD

Vbat 22 19 DC 1

ESLC 51 50  VALUE={(V(5,51)/ABS(V(5,51)))*(PWR(V(5,51)/(1e-6*500),3.5))}


.MODEL DbodyMOD D (IS=6E-12 RS=1.4e-3 IKF=20 XTI=5 TRS1=2.75e-3 TRS2=5e-6 CJO=5.5e-9 TT=5.9e-8 M=0.5 vj=0.75)
.MODEL DbreakMOD D (RS= 2.8e-2 IKF=30 TRS1=-4e-3 TRS2=1e-6)
.MODEL DplcapMOD D (CJO=6.75e-9 IS=1e-30 M=0.88 vj=1.45 FC=0.5)
.MODEL MmedMOD NMOS (VTO=2.93 KP=13.75 IS=1e-30 N=10 TOX=1 L=1u W=1u RG=0.36)
.MODEL MstroMOD NMOS (VTO=3.23 KP=96 IS=1e-30 N=10 TOX=1 L=1u W=1u Lambda=0.06)
.MODEL MweakMOD NMOS (VTO=2.35 KP=0.02 IS=1e-30 N=10 TOX=1 L=1u W=1u RG=3.6)


.MODEL RbreakMOD RES (TC1=8e-4 TC2=4e-6)
.MODEL RdrainMOD RES (TC1=1.5e-1 TC2=6.5e-4)
.MODEL RSLCMOD RES (TC1=1E-4 TC2=1.05E-6)
.MODEL RsourceMOD RES (TC1=1e-3 TC2=0)
.MODEL RvthresMOD RES (TC1=-1.5e-3 TC2=-2.6e-5)
.MODEL RvtempMOD RES (TC1=-2.75e-3 TC2=1.45e-6)
