**********
*SRC=10BQ015;10BQ015;Diodes;Schottky;1A 15V
.MODEL 10BQ015 d
+ IS=1.66692e-05 RS=0.0549971 N=1.0339 EG=0.6
+ XTI=0.5 BV=15 IBV=0.001 CJO=4.70891e-10
+ VJ=1.5 M=0.699718 FC=0.5 TT=0
+ KF=0 AF=1
*IR Schottky diode
**********
*SRC=10BQ040;10BQ040;Diodes;Schottky;1A 40V
.MODEL 10BQ040 d
+ IS=2.13126e-05 RS=0.123203 N=1.53952 EG=0.600841
+ XTI=3.78803 BV=40 IBV=0.0001 CJO=1.53747e-10
+ VJ=1.5 M=0.476132 FC=0.5 TT=0
+ KF=0 AF=1
*IR Schottky diode
**********
*SRC=10TQ045;10TQ045;Diodes;Schottky;10A 45V
.MODEL 10TQ045 d
+ IS=9.81804e-08 RS=0.00739225 N=0.993075 EG=0.6
+ XTI=0.5 BV=45 IBV=0.0001 CJO=1.42434e-09
+ VJ=1.5 M=0.479175 FC=0.5 TT=0
+ KF=0 AF=1
*IR Schottky diode
**********
*SRC=12CTQ045;12CTQ045;Diodes;Schottky;12A 45V
.MODEL 12CTQ045 d
+ IS=5.30534e-09 RS=0.014271 N=0.891364 EG=0.6
+ XTI=0.5 BV=45 IBV=0.0001 CJO=7.11199e-10
+ VJ=1.5 M=0.484798 FC=0.5 TT=0
+ KF=0 AF=1
*IR Schottky diode
**********
*SRC=12TQ045;12TQ045;Diodes;Schottky;15A 45V
.MODEL 12TQ045 d
+ IS=1.61329e-12 RS=0.01 N=0.5 EG=0.600004
+ XTI=0.5 BV=45 IBV=0.0001 CJO=1.59319e-09
+ VJ=1.5 M=0.52241 FC=0.5 TT=0
+ KF=0 AF=1
*IR Schottky diode
**********
*SRC=15CLQ100;15CLQ100;Diodes;Schottky;15A 100V
.MODEL 15CLQ100 d
+ IS=6.44968e-05 RS=0.014091 N=2 EG=0.996757
+ XTI=0.5 BV=100 IBV=0.005 CJO=1.38463e-09
+ VJ=0.4 M=0.466344 FC=0.5 TT=0
+ KF=0 AF=1
*IR Schottky diode
**********
*SRC=18TQ045;18TQ045;Diodes;Schottky;18A 45V
.MODEL 18TQ045 d
+ IS=1.97424e-13 RS=0.00628392 N=0.530234 EG=0.6
+ XTI=0.05 BV=45 IBV=0.0001 CJO=8.24939e-09
+ VJ=1.5 M=0.462568 FC=0.5 TT=0
+ KF=0 AF=1
*IR Schottky diode
**********
*SRC=20CJQ030;20CJQ030;Diodes;Schottky;2A 30V
.MODEL 20CJQ030
+ IS=7.45927e-09 RS=0.0632601 N=0.89875 EG=1.3
+ XTI=4 BV=30 IBV=0.0001 CJO=2.9346e-10
+ VJ=0.4 M=0.427299 FC=0.5 TT=0
+ KF=0 AF=1
*IR Schottky diode
**********
*SRC=20CLQ045;20CLQ045;Diodes;Schottky;20A 45V
.MODEL 20CLQ045 d
+ IS=5.55194e-10 RS=0.01 N=0.736126 EG=0.6
+ XTI=0.5 BV=45 IBV=0.005 CJO=2.42073e-09
+ VJ=0.470122 M=0.477502 FC=0.5 TT=0
+ KF=0 AF=1
*IR Schottky diode
**********
*SRC=20ETS12;20ETS12;Diodes;Rectifier >5A;1200V 20A
.MODEL 20ETS12 d
+ IS=8.28224e-09 RS=0.00791517 N=1.61051 EG=1.12793
+ XTI=0.5 BV=1000 IBV=0.0001 CJO=1e-11
+ VJ=0.7 M=0.5 FC=0.5 TT=1e-09
+ KF=0 AF=1
*IR rectifier diode
**********
*SRC=20ETS12AVG;20ETS12AVG;Diodes;Rectifier >5A;1200V 20A
.MODEL 20ETS12AVG d
+ IS=3.14987e-10 RS=0.01 N=1.37516 EG=1.06967
+ XTI=4 BV=1200 IBV=0.0001 CJO=1e-11
+ VJ=0.7 M=0.5 FC=0.5 TT=1e-09
+ KF=0 AF=1
*IR rectifier diode
**********
*SRC=20ETS12A3S;20ETS12A3S;Diodes;Rectifier >5A;1200V 20A
.MODEL 20ETS12A3S d
+ IS=2.797e-10 RS=0.0113232 N=1.38813 EG=1.07556
+ XTI=4 BV=1200 IBV=0.0001 CJO=1e-11
+ VJ=0.7 M=0.5 FC=0.5 TT=1e-09
+ KF=0 AF=1
*IR rectifier diode
**********
*SRC=2N7269;2N7269;MOSFETs N;Power >100V;200V 26A .1ohm 150w IR
*SYM=POWMOSN 
.SUBCKT 2N7269 1 2 3
* External Node Designations
* Node 1 -> Drain
* Node 2 -> Gate
* Node 3 -> Source
M1 9 7 8 8 MM L=100u W=100u
* Default values used in MM:
* The voltage-dependent capacitances are
* not included. Other default values are:
*   RS=0 RD=0 LD=0 CBD=0 CBS=0 CGBO=0
.MODEL MM NMOS LEVEL=1 IS=1e-32
+ VTO=4.07963 LAMBDA=0.00367801 KP=50.7447
+ CGSO=4.312e-05 CGDO=1e-11
RS 8 3 0.0336551
D1 3 1 MD
.MODEL MD D IS=1.44812e-08 RS=0.0141739 N=1.5 BV=200
+ IBV=10 EG=1 XTI=1 TT=0
+ CJO=2.52838e-09 VJ=2.35965 M=0.680717 FC=0.468796
RDS 3 1 6e+06
RD 9 1 0.0304844
RG 2 7 15.1693
D2 4 5 MD1
* Default values used in MD1:
*   RS=0 EG=1.11 XTI=3.0 TT=0
*   BV=infinite IBV=1mA
.MODEL MD1 D IS=1e-32 N=50
+ CJO=3.80686e-09 VJ=0.711884 M=0.9 FC=1e-08
D3 0 5 MD2
* Default values used in MD2:
*   EG=1.11 XTI=3.0 TT=0 CJO=0
*   BV=infinite IBV=1mA
.MODEL MD2 D IS=1e-10 N=0.406203 RS=3.00001e-06
RL 5 10 1
FI2 7 9 VFI2 -1
VFI2 4 0 0
EV16 10 0 9 7 1
CAP 11 10 5.50972e-09
FI1 7 9 VFI1 -1
VFI1 11 6 0
RCAP 6 10 1
D4 0 6 MD3
* Default values used in MD3:
*   EG=1.11 XTI=3.0 TT=0 CJO=0
*   RS=0 BV=infinite IBV=1mA
.MODEL MD3 D IS=1e-10 N=0.406203
.ENDS 2n7269
**********
*SRC=32CTQ030;32CTQ030;Diodes;Schottky;30A 30V
.MODEL 32CTQ030 d
+ IS=2.21746e-11 RS=0.01 N=0.5 EG=0.6
+ XTI=2.38672 BV=30 IBV=0.00175 CJO=2.11811e-09
+ VJ=1.5 M=0.499425 FC=0.5 TT=0
+ KF=0 AF=1
*IR Schottky diode
**********
*SRC=32CTQ030H;32CTQ030H;Diodes;Schottky;30A 30V
.MODEL 32CTQ030H d
+ IS=1e-15 RS=0.01 N=0.5 EG=1.07785
+ XTI=4 BV=30 IBV=0.00175 CJO=2.11811e-09
+ VJ=1.5 M=0.499425 FC=0.5 TT=0
+ KF=0 AF=1
*IR Schottky diode
**********
*SRC=40EPS08;40EPS08;Diodes;Rectifier >5A;800V 40A
.MODEL 40EPS08 d
+ IS=1e-15 RS=0.00426912 N=0.926332 EG=0.6
+ XTI=0.5 BV=800 IBV=0.0001 CJO=1e-11
+ VJ=0.7 M=0.5 FC=0.5 TT=1e-09
+ KF=0 AF=1
*IR rectifier diode
**********
*SRC=40EPS12;40EPS12;Diodes;Rectifier >5A;1200V 40A
.MODEL 40EPS12 d
+ IS=1e-15 RS=0.00426912 N=0.926332 EG=0.6
+ XTI=0.5 BV=1200 IBV=0.0001 CJO=1e-11
+ VJ=0.7 M=0.5 FC=0.5 TT=1e-09
+ KF=0 AF=1
*IR rectifier diode
**********
*SRC=40EPS16;40EPS16;Diodes;Rectifier >5A;1600V 40A
.MODEL 40EPS16 d
+ IS=1e-15 RS=0.00426912 N=0.926332 EG=0.6
+ XTI=0.5 BV=1600 IBV=0.0001 CJO=1e-11
+ VJ=0.7 M=0.5 FC=0.5 TT=1e-09
+ KF=0 AF=1
*IR rectifier diode
**********
*SRC=5EQ100;5EQ100;Diodes;Schottky;8A 100V
.MODEL 5EQ100 d
+ IS=8.77154e-05 RS=0.0202145 N=2 EG=0.815312
+ XTI=3.9995 BV=100 IBV=0.005 CJO=1.06148e-09
+ VJ=0.79108 M=0.475554 FC=0.5 TT=0
+ KF=0 AF=1
*IR Schottky diode
**********
*SRC=6TQ045;6TQ045;Diodes;Schottky;6A 45V
.MODEL 6TQ045 d
+ IS=1.1357e-08 RS=0.0148614 N=0.895316 EG=1.3
+ XTI=4 BV=45 IBV=0.0001 CJO=7.53573e-10
+ VJ=1.5 M=0.502931 FC=0.5 TT=0
+ KF=0 AF=1
*IR Schottky diode
**********
*SRC=8EQ045;8EQ045;Diodes;Rectifier >5A;45V 10A
.MODEL 8EQ045 d
+ IS=1.8026e-05 RS=0.0138308 N=1.50131 EG=0.689509
+ XTI=4 BV=45 IBV=0.005 CJO=1.98488e-09
+ VJ=0.711167 M=0.477336 FC=0.5 TT=0
+ KF=0 AF=1
*IR rectifier diode
**********
*SRC=8EWS08;8EWS08;Diodes;Rectifier >5A;800V 8A
.MODEL 8EWS08 d
+ IS=1.04304e-07 RS=0.0103888 N=2 EG=1.28885
+ XTI=3.00461 BV=800 IBV=0.0001 CJO=1e-11
+ VJ=0.7 M=0.5 FC=0.5 TT=1e-09
+ KF=0 AF=1
*IR rectifier diode
**********
*SRC=8EWS10;8EWS10;Diodes;Rectifier >5A;1000V 8A
.MODEL 8EWS10 d
+ IS=1.17378e-07 RS=0.0104837 N=2 EG=1.29966
+ XTI=3.06473 BV=1000 IBV=0.0001 CJO=1e-11
+ VJ=0.7 M=0.5 FC=0.5 TT=1e-09
+ KF=0 AF=1
*IR rectifier diode
**********
*SRC=8EWS12;8EWS12;Diodes;Rectifier >5A;1200V 8A
.MODEL 8EWS12 d
+ IS=1e-07 RS=0.0115955 N=1.9747 EG=0.6
+ XTI=0.5 BV=1200 IBV=0.0001 CJO=1e-11
+ VJ=0.7 M=0.5 FC=0.5 TT=1e-09
+ KF=0 AF=1
*IR rectifier diode
**********
*SRC=CPV364M4K;CPV364M4K;IGBTs;w/Diode;IR 600V 24A
*SYM=IGBT
.SUBCKT CPV364M4K 1 2 3
* note: model and symbol are only one package within the hex package
*External Node Designations
*Node 1 -> C
*Node 2 -> G
*Node 3 -> E
M1 9 6 8 8 MSUB L=100u W=100u
* Default values used in MSUB:
* The voltage-dependent capacitances are
* not included. Other default values are:
*   RD=0 RS=0 LD=0 CBD=0 CBS=0 CGBO=0
.MODEL MSUB NMOS LEVEL=1
+ VTO=6 KP=3.60388 LAMBDA=7.82803 CGSO=1.5985e-05
RD 7 9 1e-06
RS 4 8 0.0170356
Q1 4 7 1 QSUB OFF
.MODEL QSUB PNP
+ IS=5.45668e-16 BF=1 NF=1.26814 VAF=81.6284
+ IKF=0.0103287 ISE=1e-17 NE=1.61957 BR=0.799851
+ NR=1 VAR=117.068 IKR=1000 ISC=1e-11
+ NC=2 RB=0.0001 IRB=1017.26 RBM=9.78753e-05
+ RE=1e-08 RC=0.000999338 XTB=0.00180781 XTI=2.96085
+ EG=0.5 CJC=5.32019e-10 VJC=0.4 MJC=0.439342
+ CJE=1.06404e-08 VJE=0.4 MJE=0.9 TF=2.64527e-08
RDS 7 4 1e8
RER 4 3 0.0218554
RG 6 2 65.7322
RL 10 11 1
D2 12 11 DCAP
* Default values used in DCAP:
*   RS=0 EG=1.11 XTI=3.0 TT=0
*   BV=infinite IBV=1mA
.MODEL DCAP D IS=1e-32 N=50
+ CJO=1.57325e-09 VJ=0.4 M=0.9 FC=0.5
D3 0 11 DL
* Default values used in DL:
*   EG=1.11 XTI=3.0 TT=0 CJO=0
*   RS=0 BV=infinite IBV=1mA
.MODEL DL D IS=1e-10 N=0.4
VFI2 12 0 0
FI2 6 7 VFI2 -1
EV 10 0 7 6 1
CAP 10 13 4.08703e-10
RCAP 10 14 1
D4 0 14 DL
VFI1 13 14 0
FI1 6 7 VFI1 -1
.ENDS CPV364m4k
**********
*SRC=GA100TS60U;GA100TS60U;IGBTs;w/Diode;IR 600V 100A
*SYM=IGBT
.SUBCKT GA100TS60U 1 2 3
* 1/2 of dual package
*External Node Designations
*Node 1 -> C
*Node 2 -> G
*Node 3 -> E
M1 9 6 8 8 MSUB L=100u W=100u
* Default values used in MSUB:
* The voltage-dependent capacitances are
* not included. Other default values are:
*   RD=0 RS=0 LD=0 CBD=0 CBS=0 CGBO=0
.MODEL MSUB NMOS LEVEL=1
+ VTO=5.31059 KP=1.15447 LAMBDA=0.0561497 CGSO=9.86541e-05
RD 7 9 1e-06
RS 4 8 1e-06
D1 3 1 d100ts60u 
.MODEL d100ts60u d
+ IS=4.97062e-11 RS=4.45602 N=1.85254 EG=0.6
+ XTI=0.5 BV=1000 IBV=0.0001 CJO=1e-11
+ VJ=0.7 M=0.5 FC=0.5 TT=1e-09
+ KF=0 AF=1
Q1 4 7 1 QSUB OFF
.MODEL QSUB PNP
+ IS=1.65353e-17 BF=33.9638 NF=0.85 VAF=1560.54
+ IKF=12542.3 ISE=3.80133e-11 NE=1.45704 BR=1.02187
+ NR=1.5 VAR=174.998 IKR=1000.16 ISC=1e-17
+ NC=1 RB=0.0001 IRB=823.532 RBM=1e-05
+ RE=1e-08 RC=0.000975773 XTB=0 XTI=3.10456
+ EG=0.734003 CJC=7.22675e-09 VJC=1.5833 MJC=0.9
+ CJE=1.44535e-07 VJE=0.4 MJE=0.9 TF=9.9999e-10
RDS 7 4 1e8
RER 4 3 0.0005
RG 6 2 2
RL 10 11 1
D2 12 11 DCAP
* Default values used in DCAP:
*   RS=0 EG=1.11 XTI=3.0 TT=0
*   BV=infinite IBV=1mA
.MODEL DCAP D IS=1e-32 N=50
+ CJO=1.63776e-08 VJ=0.4 M=0.9 FC=0.5
D3 0 11 DL
* Default values used in DL:
*   EG=1.11 XTI=3.0 TT=0 CJO=0
*   RS=0 BV=infinite IBV=1mA
.MODEL DL D IS=1e-10 N=0.4
VFI2 12 0 0
FI2 6 7 VFI2 -1
EV 10 0 7 6 1
CAP 10 13 3.32502e-08
RCAP 10 14 1
D4 0 14 DL
VFI1 13 14 0
FI1 6 7 VFI1 -1
.ENDS ga100ts60u
**********
*SRC=HFA04TB60;HFA04TB60;Diodes;Soft Recovery;600V 4A
*SYM=DIODE
.SUBCKT HFA04TB60 11 16
rs 11 12 1e-05
vdsense 13 1 0
b9 12 13 v=3.00478*i(vdsense)/(1e+10*v(3)+0.00300478)
r9 12 13 1e12
b1 1 16 i=v(7)+v(8)
rdc2 2 0 1e12
e2 22 0 1 16 0.5
vqe 22 23 0
dqe 23 0 dqemod
.model dqemod d (is=1.65377e-07 n=1.58818 eg=1.3 xti=2.97811)
h2 2 0 vqe 3.12424e-08
c3 3 0 100u
rdc3 3 0 1e12
d3 0 3 dqmod
.model dqmod d
vsense 4 5
f3 3 0 vsense 1
rdc6 6 0 1e12
b6 6 0 v=1.17871e+08*v(3)
b4 4 0 v=v(6)-8.58632e+07*v(2)
r5 5 0 10K
rdc7 7 0 1e12
b7 7 0 v=8.58632e+07*(v(2)-v(3))
rdc8 8 0 1e12
e8 88 0 1 16 1
vie 88 89 0
die 89 0 diomod
.model diomod d (is=1.55692e-18)
h8 8 0 vie 1
dcj 12 16 dmod
.model dmod d(is=1e-25 n=10
+  cjo=4.87923e-11 vj=0.460323 m=0.410407)
.ends hfa04tb60
**********
*SRC=HFA08PB120;HFA08PB120;Diodes;Soft Recovery;1200V 8A
*SYM=DIODE
.SUBCKT HFA08PB120 11 16
rs 11 12 1e-05
vdsense 13 1 0
b9 12 13 v=11.5081*i(vdsense)/(1e+10*v(3)+0.0115081)
r9 12 13 1e12
b1 1 16 i=v(7)+v(8)
rdc2 2 0 1e12
e2 22 0 1 16 0.5
vqe 22 23 0
dqe 23 0 dqemod
.model dqemod d (is=4.03143e-09 n=1.19012 eg=0.6 xti=4)
h2 2 0 vqe 6.52185e-08
c3 3 0 100u
rdc3 3 0 1e12
d3 0 3 dqmod
.model dqmod d
vsense 4 5
f3 3 0 vsense 1
rdc6 6 0 1e12
b6 6 0 v=3.7752e+07*v(3)
b4 4 0 v=v(6)-2.2419e+07*v(2)
r5 5 0 10K
rdc7 7 0 1e12
b7 7 0 v=2.2419e+07*(v(2)-v(3))
rdc8 8 0 1e12
e8 88 0 1 16 1
vie 88 89 0
die 89 0 diomod
.model diomod d (is=1.10766e-17)
h8 8 0 vie 1
dcj 12 16 dmod
.model dmod d(is=1e-25 n=10
+  cjo=1.59932e-10 vj=0.4 m=0.425526)
.ends hfa08pb120
**********
*SRC=HFA08TB60M;HFA08TB60M;Diodes;Soft Recovery;600V 8A
*SYM=DIODE
.SUBCKT HFA08TB60M 11 16
rs 11 12 0.0548705
vdsense 13 1 0
b9 12 13 v=4.76278*i(vdsense)/(1e+10*v(3)+0.00476278)
r9 12 13 1e12
b1 1 16 i=v(7)+v(8)
rdc2 2 0 1e12
e2 22 0 1 16 0.5
vqe 22 23 0
dqe 23 0 dqemod
.model dqemod d (is=0.0001 n=1.54731 eg=0.6 xti=0.5)
h2 2 0 vqe 3.53024e-08
c3 3 0 100u
rdc3 3 0 1e12
d3 0 3 dqmod
.model dqmod d
vsense 4 5
f3 3 0 vsense 1
rdc6 6 0 1e12
b6 6 0 v=8.24967e+07*v(3)
b4 4 0 v=v(6)-5.41701e+07*v(2)
r5 5 0 10K
rdc7 7 0 1e12
b7 7 0 v=5.41701e+07*(v(2)-v(3))
rdc8 8 0 1e12
e8 88 0 1 16 1
vie 88 89 0
die 89 0 diomod
.model diomod d (is=5.76714e-17)
h8 8 0 vie 1
dcj 12 16 dmod
.model dmod d(is=1e-25 n=10
+  cjo=1.3717e-10 vj=0.4 m=0.41996)
.ends hfa08tb60
**********
*SRC=HFA15TB60M;HFA15TB60M;Diodes;Soft Recovery;600V 15A
*SYM=DIODE
.SUBCKT HFA15TB60M 11 16
rs 11 12 1e-05
vdsense 13 1 0
b9 12 13 v=6.18986*i(vdsense)/(1e+10*v(3)+0.00618986)
r9 12 13 1e12
b1 1 16 i=v(7)+v(8)
rdc2 2 0 1e12
e2 22 0 1 16 0.5
vqe 22 23 0
dqe 23 0 dqemod
.model dqemod d (is=4.20947e-10 n=0.871082 eg=1.3 xti=4)
h2 2 0 vqe 3.60187e-08
c3 3 0 100u
rdc3 3 0 1e12
d3 0 3 dqmod
.model dqmod d
vsense 4 5
f3 3 0 vsense 1
rdc6 6 0 1e12
b6 6 0 v=6.94444e+07*v(3)
b4 4 0 v=v(6)-4.16811e+07*v(2)
r5 5 0 10K
rdc7 7 0 1e12
b7 7 0 v=4.16811e+07*(v(2)-v(3))
rdc8 8 0 1e12
e8 88 0 1 16 1
vie 88 89 0
die 89 0 diomod
.model diomod d (is=9.27255e-16)
h8 8 0 vie 1
dcj 12 16 dmod
.model dmod d(is=1e-25 n=10
+  cjo=2.14404e-10 vj=1.45904 m=0.440128)
.ends hfa15tb60
**********
*SRC=HFA16PB120;HFA16PB120;Diodes;Soft Recovery;1200V 16A
*SYM=DIODE
.SUBCKT HFA16PB120 11 16
rs 11 12 1e-05
vdsense 13 1 0
b9 12 13 v=20.72*i(vdsense)/(1e+10*v(3)+0.02072)
r9 12 13 1e12
b1 1 16 i=v(7)+v(8)
rdc2 2 0 1e12
e2 22 0 1 16 0.5
vqe 22 23 0
dqe 23 0 dqemod
.model dqemod d (is=1.81291e-07 n=1.24837 eg=1.29999 xti=0.686554)
h2 2 0 vqe 8.06642e-08
c3 3 0 100u
rdc3 3 0 1e12
d3 0 3 dqmod
.model dqmod d
vsense 4 5
f3 3 0 vsense 1
rdc6 6 0 1e12
b6 6 0 v=2.48488e+07*v(3)
b4 4 0 v=v(6)-1.24517e+07*v(2)
r5 5 0 10K
rdc7 7 0 1e12
b7 7 0 v=1.24517e+07*(v(2)-v(3))
rdc8 8 0 1e12
e8 88 0 1 16 1
vie 88 89 0
die 89 0 diomod
.model diomod d (is=1e-15)
h8 8 0 vie 1
dcj 12 16 dmod
.model dmod d(is=1e-25 n=10
+  cjo=4.09078e-10 vj=0.4 m=0.430275)
.ends hfa16pb120
**********
*SRC=HFA25TB60;HFA25TB60;Diodes;Soft Recovery;600V 25A
*SYM=DIODE
.SUBCKT HFA25TB60 11 16
rs 11 12 0.0118374
vdsense 13 1 0
b9 12 13 v=7.69079*i(vdsense)/(1e+10*v(3)+0.00769079)
r9 12 13 1e12
b1 1 16 i=v(7)+v(8)
rdc2 2 0 1e12
e2 22 0 1 16 0.5
vqe 22 23 0
dqe 23 0 dqemod
.model dqemod d (is=0.0001 n=1.88655 eg=0.6 xti=0.5)
h2 2 0 vqe 4.14718e-08
c3 3 0 100u
rdc3 3 0 1e12
d3 0 3 dqmod
.model dqmod d
vsense 4 5
f3 3 0 vsense 1
rdc6 6 0 1e12
b6 6 0 v=5.76594e+07*v(3)
b4 4 0 v=v(6)-3.35466e+07*v(2)
r5 5 0 10K
rdc7 7 0 1e12
b7 7 0 v=3.35466e+07*(v(2)-v(3))
rdc8 8 0 1e12
e8 88 0 1 16 1
vie 88 89 0
die 89 0 diomod
.model diomod d (is=1.1884e-21)
h8 8 0 vie 1
dcj 12 16 dmod
.model dmod d(is=1e-25 n=10
+  cjo=1.16911e-09 vj=0.4 m=0.494936)
.ends hfa25tb60
**********
*SRC=HFA320NJ40C;HFA320NJ40C;Diodes;Soft Recovery;400V 320A
*SYM=DIODE
.SUBCKT HFA320NJ40C 11 16
* 1/2 of dual package
rs 11 12 0.00165
vdsense 13 1 0
b9 12 13 v=0.248401*i(vdsense)/(1e+10*v(3)+0.000248401)
r9 12 13 1e12
b1 1 16 i=v(7)+v(8)
rdc2 2 0 1e12
e2 22 0 1 16 0.5
vqe 22 23 0
dqe 23 0 dqemod
.model dqemod d (is=7.80537e-06 n=1.20853 eg=0.6 xti=0.5)
h2 2 0 vqe 2.28405e-07
c3 3 0 100u
rdc3 3 0 1e12
d3 0 3 dqmod
.model dqmod d
vsense 4 5
f3 3 0 vsense 1
rdc6 6 0 1e12
b6 6 0 v=1.04302e+09*v(3)
b4 4 0 v=v(6)-1.03864e+09*v(2)
r5 5 0 10K
rdc7 7 0 1e12
b7 7 0 v=1.03864e+09*(v(2)-v(3))
rdc8 8 0 1e12
e8 88 0 1 16 1
vie 88 89 0
die 89 0 diomod
.model diomod d (is=9.82699e-21)
h8 8 0 vie 1
dcj 12 16 dmod
.model dmod d(is=1e-25 n=10
+  cjo=5.22093e-09 vj=0.708752 m=0.482762)
.ends hfa320nj40c
**********
*SRC=IRC530;IRC530;MOSFETs N;Power <=100V;35V 14A .16ohm IR 
*SYM=POWMOSN 
.SUBCKT IRC530 1 2 3
* note: kelvin source and current sense pins are not modeled
* External Node Designations
* Node 1 -> Drain
* Node 2 -> Gate
* Node 3 -> Source
M1 9 7 8 8 MM L=100u W=100u
* Default values used in MM:
* The voltage-dependent capacitances are
* not included. Other default values are:
*   RS=0 RD=0 LD=0 CBD=0 CBS=0 CGBO=0
.MODEL MM NMOS LEVEL=1 IS=1e-32
+ VTO=3.8417 LAMBDA=0.000183473 KP=6.77904
+ CGSO=6.48779e-06 CGDO=3.96544e-07
RS 8 3 0.0618303
D1 3 1 MD
.MODEL MD D IS=1.39392e-08 RS=0.0134892 N=1.5 BV=100
+ IBV=0.00025 EG=1.2 XTI=2.86556 TT=0
+ CJO=8.49817e-10 VJ=5 M=0.70665 FC=0.1
RDS 3 1 1e+06
RD 9 1 0.00964805
RG 2 7 4.15462
D2 4 5 MD1
* Default values used in MD1:
*   RS=0 EG=1.11 XTI=3.0 TT=0
*   BV=infinite IBV=1mA
.MODEL MD1 D IS=1e-32 N=50
+ CJO=1.20164e-09 VJ=0.5 M=0.9 FC=1e-08
D3 0 5 MD2
* Default values used in MD2:
*   EG=1.11 XTI=3.0 TT=0 CJO=0
*   BV=infinite IBV=1mA
.MODEL MD2 D IS=1e-10 N=0.4 RS=3e-06
RL 5 10 1
FI2 7 9 VFI2 -1
VFI2 4 0 0
EV16 10 0 9 7 1
CAP 11 10 1.20164e-09
FI1 7 9 VFI1 -1
VFI1 11 6 0
RCAP 6 10 1
D4 0 6 MD3
* Default values used in MD3:
*   EG=1.11 XTI=3.0 TT=0 CJO=0
*   RS=0 BV=infinite IBV=1mA
.MODEL MD3 D IS=1e-10 N=0.4
.ENDS IRC530
**********
*SRC=IRC630;IRC630;MOSFETs N;Power >100V;200V 9A .4ohm IR 
*SYM=POWMOSN 
.SUBCKT IRC630 1 2 3
* note: kelvin source and current sense pins are not modeled
* External Node Designations
* Node 1 -> Drain
* Node 2 -> Gate
* Node 3 -> Source
M1 9 7 8 8 MM L=100u W=100u
* Default values used in MM:
* The voltage-dependent capacitances are
* not included. Other default values are:
*   RS=0 RD=0 LD=0 CBD=0 CBS=0 CGBO=0
.MODEL MM NMOS LEVEL=1 IS=1e-32
+ VTO=3.92306 LAMBDA=0 KP=2.77526
+ CGSO=7.16568e-06 CGDO=1e-11
RS 8 3 0.0001
D1 3 1 MD
.MODEL MD D IS=6.82769e-09 RS=0.0164891 N=1.48852 BV=200
+ IBV=0.00025 EG=1.2 XTI=3.1134 TT=-3.6166e-10
+ CJO=6.53764e-10 VJ=4.00419 M=0.700105 FC=0.5
RDS 3 1 1e+06
RD 9 1 0.185476
RG 2 7 2.78035
D2 4 5 MD1
* Default values used in MD1:
*   RS=0 EG=1.11 XTI=3.0 TT=0
*   BV=infinite IBV=1mA
.MODEL MD1 D IS=1e-32 N=50
+ CJO=1.13167e-09 VJ=1.53214 M=0.9 FC=1e-08
D3 0 5 MD2
* Default values used in MD2:
*   EG=1.11 XTI=3.0 TT=0 CJO=0
*   BV=infinite IBV=1mA
.MODEL MD2 D IS=1e-10 N=0.4 RS=3e-06
RL 5 10 1
FI2 7 9 VFI2 -1
VFI2 4 0 0
EV16 10 0 9 7 1
CAP 11 10 1.18562e-09
FI1 7 9 VFI1 -1
VFI1 11 6 0
RCAP 6 10 1
D4 0 6 MD3
* Default values used in MD3:
*   EG=1.11 XTI=3.0 TT=0 CJO=0
*   RS=0 BV=infinite IBV=1mA
.MODEL MD3 D IS=1e-10 N=0.4
.ENDS IRC630
**********
*SRC=IRC634;IRC634;MOSFETs N;Power >100V;250V 8.1A .45ohm IR 
*SYM=POWMOSN 
.SUBCKT IRC634 1 2 3
* note: kelvin source and current sense pins are not modeled
* External Node Designations
* Node 1 -> Drain
* Node 2 -> Gate
* Node 3 -> Source
M1 9 7 8 8 MM L=100u W=100u
* Default values used in MM:
* The voltage-dependent capacitances are
* not included. Other default values are:
*   RS=0 RD=0 LD=0 CBD=0 CBS=0 CGBO=0
.MODEL MM NMOS LEVEL=1 IS=1e-32
+ VTO=3.87777 LAMBDA=0.00110664 KP=2.77169
+ CGSO=7.2321e-06 CGDO=1e-11
RS 8 3 0.0001
D1 3 1 MD
.MODEL MD D IS=1.36827e-09 RS=0.0177426 N=1.32266 BV=250
+ IBV=0.00025 EG=1.2 XTI=3.15917 TT=0
+ CJO=6.57761e-10 VJ=5 M=0.869334 FC=0.5
RDS 3 1 1e+06
RD 9 1 0.332227
RG 2 7 2.78068
D2 4 5 MD1
* Default values used in MD1:
*   RS=0 EG=1.11 XTI=3.0 TT=0
*   BV=infinite IBV=1mA
.MODEL MD1 D IS=1e-32 N=50
+ CJO=1.18885e-09 VJ=1.18601 M=0.9 FC=1e-08
D3 0 5 MD2
* Default values used in MD2:
*   EG=1.11 XTI=3.0 TT=0 CJO=0
*   BV=infinite IBV=1mA
.MODEL MD2 D IS=1e-10 N=0.50364 RS=3e-06
RL 5 10 1
FI2 7 9 VFI2 -1
VFI2 4 0 0
EV16 10 0 9 7 1
CAP 11 10 1.18885e-09
FI1 7 9 VFI1 -1
VFI1 11 6 0
RCAP 6 10 1
D4 0 6 MD3
* Default values used in MD3:
*   EG=1.11 XTI=3.0 TT=0 CJO=0
*   RS=0 BV=infinite IBV=1mA
.MODEL MD3 D IS=1e-10 N=0.50364
.ENDS IRC634
**********
*SRC=IRC644;IRC644;MOSFETs N;Power >100V;250V 14A .28ohm IR 
*SYM=POWMOSN
.SUBCKT IRC644 1 2 3
* note: kelvin source and current sense pins are not modeled
* External Node Designations
* Node 1 -> Drain
* Node 2 -> Gate
* Node 3 -> Source
M1 9 7 8 8 MM L=100u W=100u
* Default values used in MM:
* The voltage-dependent capacitances are
* not included. Other default values are:
*   RS=0 RD=0 LD=0 CBD=0 CBS=0 CGBO=0
.MODEL MM NMOS LEVEL=1 IS=1e-32
+ VTO=4 LAMBDA=0.00172694 KP=7.90155
+ CGSO=1.22676e-05 CGDO=1e-11
RS 8 3 0.0422321
D1 3 1 MD
.MODEL MD D IS=3.25164e-09 RS=0.0100246 N=1.41278 BV=250
+ IBV=0.00025 EG=1.2 XTI=1 TT=0
+ CJO=1.12847e-09 VJ=5 M=0.9 FC=0.5
RDS 3 1 1e+06
RD 9 1 0.150411
RG 2 7 4.25888
D2 4 5 MD1
* Default values used in MD1:
*   RS=0 EG=1.11 XTI=3.0 TT=0
*   BV=infinite IBV=1mA
.MODEL MD1 D IS=1e-32 N=50
+ CJO=1.80623e-09 VJ=1.56841 M=0.9 FC=1e-08
D3 0 5 MD2
* Default values used in MD2:
*   EG=1.11 XTI=3.0 TT=0 CJO=0
*   BV=infinite IBV=1mA
.MODEL MD2 D IS=1e-10 N=0.573503 RS=3e-06
RL 5 10 1
FI2 7 9 VFI2 -1
VFI2 4 0 0
EV16 10 0 9 7 1
CAP 11 10 1.80623e-09
FI1 7 9 VFI1 -1
VFI1 11 6 0
RCAP 6 10 1
D4 0 6 MD3
* Default values used in MD3:
*   EG=1.11 XTI=3.0 TT=0 CJO=0
*   RS=0 BV=infinite IBV=1mA
.MODEL MD3 D IS=1e-10 N=0.573503
.ENDS IRC644
**********
*SRC=IRC740;IRC740;MOSFETs N;Power >100V;400V 10A .55ohm IR 
*SYM=POWMOSN
.SUBCKT IRC740 1 2 3
* note: kelvin source and current sense pins are not modeled
* External Node Designations
* Node 1 -> Drain
* Node 2 -> Gate
* Node 3 -> Source
M1 9 7 8 8 MM L=100u W=100u
* Default values used in MM:
* The voltage-dependent capacitances are
* not included. Other default values are:
*   RS=0 RD=0 LD=0 CBD=0 CBS=0 CGBO=0
.MODEL MM NMOS LEVEL=1 IS=1e-32
+ VTO=3.99692 LAMBDA=0.00303292 KP=7.2782
+ CGSO=1.20263e-05 CGDO=1e-11
RS 8 3 0.0441803
D1 3 1 MD
.MODEL MD D IS=1.05177e-09 RS=0.0124267 N=1.32938 BV=400
+ IBV=0.00025 EG=1.2 XTI=4 TT=0
+ CJO=1.2495e-09 VJ=3.59156 M=0.9 FC=0.5
RDS 3 1 1e+06
RD 9 1 0.411787
RG 2 7 6
D2 4 5 MD1
* Default values used in MD1:
*   RS=0 EG=1.11 XTI=3.0 TT=0
*   BV=infinite IBV=1mA
.MODEL MD1 D IS=1e-32 N=50
+ CJO=2.31356e-09 VJ=0.570846 M=0.9 FC=1e-08
D3 0 5 MD2
* Default values used in MD2:
*   EG=1.11 XTI=3.0 TT=0 CJO=0
*   BV=infinite IBV=1mA
.MODEL MD2 D IS=1e-10 N=0.483428 RS=3e-06
RL 5 10 1
FI2 7 9 VFI2 -1
VFI2 4 0 0
EV16 10 0 9 7 1
CAP 11 10 2.31356e-09
FI1 7 9 VFI1 -1
VFI1 11 6 0
RCAP 6 10 1
D4 0 6 MD3
* Default values used in MD3:
*   EG=1.11 XTI=3.0 TT=0 CJO=0
*   RS=0 BV=infinite IBV=1mA
.MODEL MD3 D IS=1e-10 N=0.483428
.ENDS IRC740
**********
*SRC=IRCZ24;IRCZ24;MOSFETs N;Power <=100V;60V 17A .1ohm IR 
*SYM=POWMOSN
.SUBCKT IRCZ24 1 2 3 
* note: kelvin source and current sense pins are not modeled
* External Node Designations
* Node 1 -> Drain
* Node 2 -> Gate
* Node 3 -> Source
M1 9 7 8 8 MM L=100u W=100u
* Default values used in MM:
* The voltage-dependent capacitances are
* not included. Other default values are:
*   RS=0 RD=0 LD=0 CBD=0 CBS=0 CGBO=0
.MODEL MM NMOS LEVEL=1 IS=1e-32
+ VTO=3.86604 LAMBDA=0.0015973 KP=8.90433
+ CGSO=6.53563e-06 CGDO=2.21534e-08
RS 8 3 0.0440805
D1 3 1 MD
.MODEL MD D IS=2.94977e-09 RS=0.017724 N=1.38966 BV=60
+ IBV=0.00025 EG=1.2 XTI=3.13138 TT=0
+ CJO=1.13567e-09 VJ=0.895741 M=0.413659 FC=0.5
RDS 3 1 1e+06
RD 9 1 0.0001
RG 2 7 10.3993
D2 4 5 MD1
* Default values used in MD1:
*   RS=0 EG=1.11 XTI=3.0 TT=0
*   BV=infinite IBV=1mA
.MODEL MD1 D IS=1e-32 N=50
+ CJO=7.72577e-10 VJ=0.5 M=0.595241 FC=1e-08
D3 0 5 MD2
* Default values used in MD2:
*   EG=1.11 XTI=3.0 TT=0 CJO=0
*   BV=infinite IBV=1mA
.MODEL MD2 D IS=1e-10 N=0.4 RS=3e-06
RL 5 10 1
FI2 7 9 VFI2 -1
VFI2 4 0 0
EV16 10 0 9 7 1
CAP 11 10 7.72577e-10
FI1 7 9 VFI1 -1
VFI1 11 6 0
RCAP 6 10 1
D4 0 6 MD3
* Default values used in MD3:
*   EG=1.11 XTI=3.0 TT=0 CJO=0
*   RS=0 BV=infinite IBV=1mA
.MODEL MD3 D IS=1e-10 N=0.4
.ENDS IRCz24
**********
*SRC=IRCZ34;IRCZ34;MOSFETs N;Power <=100V;60V 30A .05ohm IR 
*SYM=POWMOSN
.SUBCKT IRCZ34 1 2 3
* note: kelvin source and current sense pins are not modeled
* External Node Designations
* Node 1 -> Drain
* Node 2 -> Gate
* Node 3 -> Source
M1 9 7 8 8 MM L=100u W=100u
* Default values used in MM:
* The voltage-dependent capacitances are
* not included. Other default values are:
*   RS=0 RD=0 LD=0 CBD=0 CBS=0 CGBO=0
.MODEL MM NMOS LEVEL=1 IS=1e-32
+ VTO=3.9661 LAMBDA=0.000469087 KP=13.4687
+ CGSO=1.1776e-05 CGDO=3.6687e-08
RS 8 3 0.0281675
D1 3 1 MD
.MODEL MD D IS=5.79538e-10 RS=0.0162437 N=1.25992 BV=60
+ IBV=0.00025 EG=1.2 XTI=3.00233 TT=0.0001
+ CJO=2.21576e-09 VJ=1.13887 M=0.452961 FC=0.5
RDS 3 1 1e+06
RD 9 1 0.0001
RG 2 7 7.51253
D2 4 5 MD1
* Default values used in MD1:
*   RS=0 EG=1.11 XTI=3.0 TT=0
*   BV=infinite IBV=1mA
.MODEL MD1 D IS=1e-32 N=50
+ CJO=1.22012e-09 VJ=0.5 M=0.63656 FC=1e-08
D3 0 5 MD2
* Default values used in MD2:
*   EG=1.11 XTI=3.0 TT=0 CJO=0
*   BV=infinite IBV=1mA
.MODEL MD2 D IS=1e-10 N=0.4 RS=3e-06
RL 5 10 1
FI2 7 9 VFI2 -1
VFI2 4 0 0
EV16 10 0 9 7 1
CAP 11 10 1.41766e-09
FI1 7 9 VFI1 -1
VFI1 11 6 0
RCAP 6 10 1
D4 0 6 MD3
* Default values used in MD3:
*   EG=1.11 XTI=3.0 TT=0 CJO=0
*   RS=0 BV=infinite IBV=1mA
.MODEL MD3 D IS=1e-10 N=0.4
.ENDS IRCz34
**********
*SRC=IRCZ44;IRCZ44;MOSFETs N;Power <=100V;60V 50A .028ohm IR 
*SYM=POWMOSN
.SUBCKT IRCZ44 1 2 3
* note: kelvin source and current sense pins are not modeled
* External Node Designations
* Node 1 -> Drain
* Node 2 -> Gate
* Node 3 -> Source
M1 9 7 8 8 MM L=100u W=100u
* Default values used in MM:
* The voltage-dependent capacitances are
* not included. Other default values are:
*   RS=0 RD=0 LD=0 CBD=0 CBS=0 CGBO=0
.MODEL MM NMOS LEVEL=1 IS=1e-32
+ VTO=3.96632 LAMBDA=0 KP=24.1095
+ CGSO=2.29571e-05 CGDO=1e-11
RS 8 3 0.0145625
D1 3 1 MD
.MODEL MD D IS=7.45567e-09 RS=0.00797987 N=1.37641 BV=60
+ IBV=0.00025 EG=1.03908 XTI=2.99817 TT=2.00001e-05
+ CJO=4.21781e-09 VJ=0.74199 M=0.426901 FC=0.1
RDS 3 1 1e+06
RD 9 1 0.0001
RG 2 7 6.3173
D2 4 5 MD1
* Default values used in MD1:
*   RS=0 EG=1.11 XTI=3.0 TT=0
*   BV=infinite IBV=1mA
.MODEL MD1 D IS=1e-32 N=50
+ CJO=2.79789e-09 VJ=0.5 M=0.62706 FC=1e-08
D3 0 5 MD2
* Default values used in MD2:
*   EG=1.11 XTI=3.0 TT=0 CJO=0
*   BV=infinite IBV=1mA
.MODEL MD2 D IS=1e-10 N=0.403893 RS=3e-06
RL 5 10 1
FI2 7 9 VFI2 -1
VFI2 4 0 0
EV16 10 0 9 7 1
CAP 11 10 2.79789e-09
FI1 7 9 VFI1 -1
VFI1 11 6 0
RCAP 6 10 1
D4 0 6 MD3
* Default values used in MD3:
*   EG=1.11 XTI=3.0 TT=0 CJO=0
*   RS=0 BV=infinite IBV=1mA
.MODEL MD3 D IS=1e-10 N=0.403893
.ENDS IRCZ44
**********
*SRC=IRF1010N;IRF1010N;MOSFETs N;Power <=100V;55V 75A .014ohm IR 
*SYM=POWMOSN
.SUBCKT IRF1010N 1 2 3
* External Node Designations
* Node 1 -> Drain
* Node 2 -> Gate
* Node 3 -> Source
M1 9 7 8 8 MM L=100u W=100u
* Default values used in MM:
* The voltage-dependent capacitances are
* not included. Other default values are:
*   RS=0 RD=0 LD=0 CBD=0 CBS=0 CGBO=0
.MODEL MM NMOS LEVEL=1 IS=1e-32
+ VTO=3.74027 LAMBDA=0 KP=77.8391
+ CGSO=2.65858e-05 CGDO=9.07312e-07
RS 8 3 0.00745315
D1 3 1 MD
.MODEL MD D IS=1.144e-10 RS=0.00549195 N=1.16823 BV=55
+ IBV=0.00025 EG=1.2 XTI=3.00643 TT=9.99105e-05
+ CJO=2.38777e-09 VJ=1.6842 M=0.534609 FC=0.5
RDS 3 1 2.2e+06
RD 9 1 0.0001
RG 2 7 4.09017
D2 4 5 MD1
* Default values used in MD1:
*   RS=0 EG=1.11 XTI=3.0 TT=0
*   BV=infinite IBV=1mA
.MODEL MD1 D IS=1e-32 N=50
+ CJO=3.56372e-09 VJ=0.5 M=0.70332 FC=1e-08
D3 0 5 MD2
* Default values used in MD2:
*   EG=1.11 XTI=3.0 TT=0 CJO=0
*   BV=infinite IBV=1mA
.MODEL MD2 D IS=1e-10 N=0.4 RS=3e-06
RL 5 10 1
FI2 7 9 VFI2 -1
VFI2 4 0 0
EV16 10 0 9 7 1
CAP 11 10 4.05227e-09
FI1 7 9 VFI1 -1
VFI1 11 6 0
RCAP 6 10 1
D4 0 6 MD3
* Default values used in MD3:
*   EG=1.11 XTI=3.0 TT=0 CJO=0
*   RS=0 BV=infinite IBV=1mA
.MODEL MD3 D IS=1e-10 N=0.4
.ENDS
**********
*SRC=IRF1010NSM;IRF1010NSM;MOSFETs N;Power <=100V;55V 75A .014ohm IR 
*SYM=POWMOSN
.SUBCKT IRF1010NSM 1 2 3
* External Node Designations
* Node 1 -> Drain
* Node 2 -> Gate
* Node 3 -> Source
M1 9 7 8 8 MM L=100u W=100u
* Default values used in MM:
* The voltage-dependent capacitances are
* not included. Other default values are:
*   RS=0 RD=0 LD=0 CBD=0 CBS=0 CGBO=0
.MODEL MM NMOS LEVEL=1 IS=1e-32
+ VTO=3.74027 LAMBDA=0 KP=77.8391
+ CGSO=2.65858e-05 CGDO=9.07312e-07
RS 8 3 0.00745315
D1 3 1 MD
.MODEL MD D IS=1.144e-10 RS=0.00549195 N=1.16823 BV=55
+ IBV=0.00025 EG=1.2 XTI=3.00643 TT=9.99105e-05
+ CJO=2.38777e-09 VJ=1.6842 M=0.534609 FC=0.5
RDS 3 1 2.2e+06
RD 9 1 0.0001
RG 2 7 4.09017
D2 4 5 MD1
* Default values used in MD1:
*   RS=0 EG=1.11 XTI=3.0 TT=0
*   BV=infinite IBV=1mA
.MODEL MD1 D IS=1e-32 N=50
+ CJO=3.56372e-09 VJ=0.5 M=0.70332 FC=1e-08
D3 0 5 MD2
* Default values used in MD2:
*   EG=1.11 XTI=3.0 TT=0 CJO=0
*   BV=infinite IBV=1mA
.MODEL MD2 D IS=1e-10 N=0.4 RS=3e-06
RL 5 10 1
FI2 7 9 VFI2 -1
VFI2 4 0 0
EV16 10 0 9 7 1
CAP 11 10 4.05227e-09
FI1 7 9 VFI1 -1
VFI1 11 6 0
RCAP 6 10 1
D4 0 6 MD3
* Default values used in MD3:
*   EG=1.11 XTI=3.0 TT=0 CJO=0
*   RS=0 BV=infinite IBV=1mA
.MODEL MD3 D IS=1e-10 N=0.4
.ENDS
**********
*SRC=IRF1104;IRF1104;MOSFETs N;Power <=100V;40V 100A .009ohm IR 
*SYM=POWMOSN
.SUBCKT IRF1104 1 2 3
* External Node Designations
* Node 1 -> Drain
* Node 2 -> Gate
* Node 3 -> Source
M1 9 7 8 8 MM L=100u W=100u
* Default values used in MM:
* The voltage-dependent capacitances are
* not included. Other default values are:
*   RS=0 RD=0 LD=0 CBD=0 CBS=0 CGBO=0
.MODEL MM NMOS LEVEL=1 IS=1e-32
+ VTO=4.016 LAMBDA=0 KP=24.9968
+ CGSO=2.67866e-05 CGDO=1.00181e-06
RS 8 3 0.0001
D1 3 1 MD
.MODEL MD D IS=2.9505e-11 RS=0.00319022 N=1.10603 BV=40
+ IBV=0.00025 EG=1.2 XTI=2.95239 TT=1.99991e-05
+ CJO=3.41485e-09 VJ=1.33209 M=0.470743 FC=0.1
RDS 3 1 1e+06
RD 9 1 0.00327083
RG 2 7 4.09017
D2 4 5 MD1
* Default values used in MD1:
*   RS=0 EG=1.11 XTI=3.0 TT=0
*   BV=infinite IBV=1mA
.MODEL MD1 D IS=1e-32 N=50
+ CJO=1.7269e-09 VJ=0.934228 M=0.806705 FC=1e-08
D3 0 5 MD2
* Default values used in MD2:
*   EG=1.11 XTI=3.0 TT=0 CJO=0
*   BV=infinite IBV=1mA
.MODEL MD2 D IS=1e-10 N=0.4 RS=3e-06
RL 5 10 1
FI2 7 9 VFI2 -1
VFI2 4 0 0
EV16 10 0 9 7 1
CAP 11 10 2.28735e-09
FI1 7 9 VFI1 -1
VFI1 11 6 0
RCAP 6 10 1
D4 0 6 MD3
* Default values used in MD3:
*   EG=1.11 XTI=3.0 TT=0 CJO=0
*   RS=0 BV=infinite IBV=1mA
.MODEL MD3 D IS=1e-10 N=0.4
.ENDS IRF1104
**********
*SRC=IRF130M;IRF130M;MOSFETs N;Power <=100V;100V 14A .18ohm IR 
*SYM=POWMOSN
.SUBCKT IRF130M 1 2 3
* External Node Designations
* Node 1 -> Drain
* Node 2 -> Gate
* Node 3 -> Source
M1 9 7 8 8 MM L=100u W=100u
* Default values used in MM:
* The voltage-dependent capacitances are
* not included. Other default values are:
*   RS=0 RD=0 LD=0 CBD=0 CBS=0 CGBO=0
.MODEL MM NMOS LEVEL=1 IS=1e-32
+ VTO=3.7086 LAMBDA=0.00546869 KP=6.47954
+ CGSO=6.01571e-06 CGDO=1.00038e-11
RS 8 3 0.103578
D1 3 1 MD
.MODEL MD D IS=2.87214e-09 RS=0.0503805 N=1.43125 BV=100
+ IBV=0.001 EG=1.2 XTI=3.00448 TT=0.0001
+ CJO=7.8614e-10 VJ=2.16409 M=0.538403 FC=0.437289
RDS 3 1 3.2e+06
RD 9 1 0.0297028
RG 2 7 22.01
D2 4 5 MD1
* Default values used in MD1:
*   RS=0 EG=1.11 XTI=3.0 TT=0
*   BV=infinite IBV=1mA
.MODEL MD1 D IS=1e-32 N=50
+ CJO=7.26039e-10 VJ=0.5 M=0.746885 FC=1e-08
D3 0 5 MD2
* Default values used in MD2:
*   EG=1.11 XTI=3.0 TT=0 CJO=0
*   BV=infinite IBV=1mA
.MODEL MD2 D IS=1e-10 N=0.4 RS=3e-06
RL 5 10 1
FI2 7 9 VFI2 -1
VFI2 4 0 0
EV16 10 0 9 7 1
CAP 11 10 1.51832e-09