**********
* Intusoft - Philips (Signetics) SPICE Modeling Series 
* LVT SPICE Models
* 08 August 1998
* 
* Source: Intusoft P.O. Box 710 San Pedro, Ca. 90733-0710
* Phone: (310) 833-0710 FAX: (310) 833-9658
* 
* INTUSOFT hereby grants the users of these macromodels a
* non-exclusive, nontransferrable license to use these macromodel under
* the following conditions:
* 
* These models are provided as is. INTUSOFT makes no warranty, either
* expressed or implied about the suitability or fitness of these models
* for any particular purpose. In no event will INTUSOFT be liable for
* special, collateral, incidental or consequential damages in
* connection with or arising out of the use of these macromodels. It
* should be remembered that models are a simplification of the actual
* circuit.
* 
* INTUSOFT reserves the right to change these macromodels without
* prior notice.
* 
* ************************
* IsSpice Models         *
* Nominal Case(s)        *
* ************************
**********
*SRC=74LVT125n;74LVT125n;BiCMOS;LVT;I/O Only
*SYM=LVT
.SUBCKT 74LVT125n D E Q VCC
* Note: use ABSTOL=1n simulator option to aid convergence
X1 1 99 6 IN_DN
X2 1 90 99 6 INVBN
X4 90 3 2 99 6 6 OUTCKTN 
L1 2 Q 5NH
L2 VCC 99 6NH
L3 0 6 6NH
L4 D 1 6NH
L5 E 3 6NH
C1 2 0 1.5PF
C2 99 0 1.5PF
C3 6 0 1.5PF
C4 1 0 1.5PF
C5 3 0 1.5PF
.ENDS 74LVT125n
*INCLUDE LVT.LIB
**********
*SRC=74LVT244n;74LVT244n;BiCMOS;LVT;I/O Only
*SYM=LVT
.SUBCKT 74LVT244n D E Q VCC
* Note: use ABSTOL=1n simulator option to aid convergence
X1 1 99 6 IN_DN
X2 1 90 99 6 INVBN
X4 90 3 2 99 6 6 OUTCKTN 
L1 2 Q 5NH
L2 VCC 99 6NH
L3 0 6 6NH
L4 D 1 6NH
L5 E 3 6NH
C1 2 0 1.5PF
C2 99 0 1.5PF
C3 6 0 1.5PF
C4 1 0 1.5PF
C5 3 0 1.5PF
.ENDS 74LVT244n
*INCLUDE LVT.LIB
**********
*SRC=74LVT273n;74LVT273n;BiCMOS;LVT;I/O Only
*SYM=LVT
.SUBCKT 74LVT273n D E Q VCC
* Note: use ABSTOL=1n simulator option to aid convergence
X1 1 99 6 IN_DN
X2 1 90 99 6 INVAN
X4 90 3 2 99 6 6 OUTCKTN 
L1 2 Q 5NH
L2 VCC 99 6NH
L3 0 6 6NH
L4 D 1 6NH
L5 E 3 6NH
C1 2 0 1.5PF
C2 99 0 1.5PF
C3 6 0 1.5PF
C4 1 0 1.5PF
C5 3 0 1.5PF
.ENDS 74LVT273n
*INCLUDE LVT.LIB
**********
*SRC=74LVT573n;74LVT573n;BiCMOS;LVT;I/O Only
*SYM=LVT
.SUBCKT 74LVT573n D E Q VCC
* Note: use ABSTOL=1n simulator option to aid convergence
X1 1 99 6 IN_DN
X2 1 90 99 6 INVAN
X4 90 3 2 99 6 6 OUTCKTN 
L1 2 Q 5NH
L2 VCC 99 6NH
L3 0 6 6NH
L4 D 1 6NH
L5 E 3 6NH
C1 2 0 1.5PF
C2 99 0 1.5PF
C3 6 0 1.5PF
C4 1 0 1.5PF
C5 3 0 1.5PF
.ENDS 74LVT573n
*INCLUDE LVT.LIB
**********
*SRC=74LVT574n;74LVT574n;BiCMOS;LVT;I/O Only
*SYM=LVT
.SUBCKT 74LVT574n D E Q VCC
* Note: use ABSTOL=1n simulator option to aid convergence
X1 1 99 6 IN_DN
X2 1 90 99 6 INVAN
X4 90 3 2 99 6 6 OUTCKTN 
L1 2 Q 5NH
L2 VCC 99 6NH
L3 0 6 6NH
L4 D 1 6NH
L5 E 3 6NH
C1 2 0 1.5PF
C2 99 0 1.5PF
C3 6 0 1.5PF
C4 1 0 1.5PF
C5 3 0 1.5PF
.ENDS 74LVT574n
*INCLUDE LVT.LIB
**********
*SRC=74LVT240n;74LVT240n;BiCMOS;LVT;I/O Only
*SYM=LVT
.SUBCKT 74LVT240n D E Q VCC
* Note: use ABSTOL=1n simulator option to aid convergence
X1 1 99 6 IN_DN
X2 1 90 99 6 INVBN
X3 90 91 99 6 INVBN
X4 91 3 2 99 6 6 OUTCKTN 
L1 2 Q 5NH
L2 VCC 99 6NH
L3 0 6 6NH
L4 D 1 6NH
L5 E 3 6NH
C1 2 0 1.5PF
C2 99 0 1.5PF
C3 6 0 1.5PF
C4 1 0 1.5PF
C5 3 0 1.5PF
.ENDS 74LVT240n
*INCLUDE LVT.LIB
**********
*SRC=74LVT245n;74LVT245n;BiCMOS;LVT;I/O Only
*SYM=LVT
.SUBCKT 74LVT245n D E Q VCC
* Note: use ABSTOL=1n simulator option to aid convergence
X1 1 99 6 IN_DN
X2 1 90 99 6 INVDN
X3 90 3 2 99 6 6 OUTCKTN 
X4 2 99 6 IN_DN
X5 2 91 99 6 INVDN
X6 91 8 1 99 6 6 OUTCKTN 
VOE1 8 0 0.0
L1 2 Q 5NH
L2 VCC 99 6NH
L3 0 6 6NH
L4 D 1 6NH
L5 E 3 6NH
C1 2 0 1.5PF
C2 99 0 1.5PF
C3 6 0 1.5PF
C4 1 0 1.5PF
C5 3 0 1.5PF
.ENDS 74LVT245n
*INCLUDE LVT.LIB
**********
*SRC=74LVT646n;74LVT646n;BiCMOS;LVT;I/O Only
*SYM=LVT
.SUBCKT 74LVT646n D E Q VCC
* Note: use ABSTOL=1n simulator option to aid convergence
X1 1 99 6 IN_DN
X2 1 90 99 6 INVDN
X3 90 3 2 99 6 6 OUTCKTN 
X4 2 99 6 IN_DN
X5 2 91 99 6 INVDN
X6 91 8 1 99 6 6 OUTCKTN 
VOE1 8 0 0.0
L1 2 Q 5NH
L2 VCC 99 6NH
L3 0 6 6NH
L4 D 1 6NH
L5 E 3 6NH
C1 2 0 1.5PF
C2 99 0 1.5PF
C3 6 0 1.5PF
C4 1 0 1.5PF
C5 3 0 1.5PF
.ENDS 74LVT646n
*INCLUDE LVT.LIB
**********
*SRC=74LVT543n;74LVT543n;BiCMOS;LVT;I/O Only
*SYM=LVT
.SUBCKT 74LVT543n D E Q VCC
* Note: use ABSTOL=1n simulator option to aid convergence
X1 1 99 6 IN_DN
X2 1 90 99 6 INVCN
X3 90 3 2 99 6 6 OUTCKTN 
X4 2 99 6 IN_DN
X5 2 91 99 6 INVCN
X6 91 8 1 99 6 6 OUTCKTN 
VOE1 8 0 0.0
L1 2 Q 5NH
L2 VCC 99 6NH
L3 0 6 6NH
L4 D 1 6NH
L5 E 3 6NH
C1 2 0 1.5PF
C2 99 0 1.5PF
C3 6 0 1.5PF
C4 1 0 1.5PF
C5 3 0 1.5PF
.ENDS 74LVT543n
*INCLUDE LVT.LIB
**********
*SRC=74LVT652n;74LVT652n;BiCMOS;LVT;I/O Only
*SYM=LVT
.SUBCKT 74LVT652n D E Q VCC
* Note: use ABSTOL=1n simulator option to aid convergence
X1 1 99 6 IN_DN
X2 1 90 99 6 INVDN
X3 90 3 2 99 6 6 OUTCKTN 
X4 2 99 6 IN_DN
X5 2 91 99 6 INVDN
X6 91 8 1 99 6 6 OUTCKTN 
VOE1 8 0 0.0
L1 2 Q 5NH
L2 VCC 99 6NH
L3 0 6 6NH
L4 D 1 6NH
L5 E 3 6NH
C1 2 0 1.5PF
C2 99 0 1.5PF
C3 6 0 1.5PF
C4 1 0 1.5PF
C5 3 0 1.5PF
.ENDS 74LVT652n
*INCLUDE LVT.LIB
**********
*SRC=74LVT2952n;74LVT2952n;BiCMOS;LVT;I/O Only
*SYM=LVT
.SUBCKT 74LVT2952n D E Q VCC
* Note: use ABSTOL=1n simulator option to aid convergence
X1 1 99 6 IN_DN
X2 1 90 99 6 INVDN
X3 90 3 2 99 6 6 OUTCKTN 
X4 2 99 6 IN_DN
X5 2 91 99 6 INVDN
X6 91 8 1 99 6 6 OUTCKTN 
VOE1 8 0 0.0
L1 2 Q 5NH
L2 VCC 99 6NH
L3 0 6 6NH
L4 D 1 6NH
L5 E 3 6NH
C1 2 0 1.5PF
C2 99 0 1.5PF
C3 6 0 1.5PF
C4 1 0 1.5PF
C5 3 0 1.5PF
.ENDS 74LVT2952n
*INCLUDE LVT.LIB
* ************************
* IsSpice Models         *
* Fast Case(s)           *
* ************************
**********
*SRC=74LVT125f;74LVT125f;BiCMOS;ALVT (fast);I/O Only
*SYM=LVT
.SUBCKT 74LVT125f D E Q VCC
* Note: use ABSTOL=1n simulator option to aid convergence
X1 1 99 6 IN_DF
X2 1 90 99 6 INVBF
X4 90 3 2 99 6 6 OUTCKTF 
L1 2 Q 5NH
L2 VCC 99 6NH
L3 0 6 6NH
L4 D 1 6NH
L5 E 3 6NH
C1 2 0 1.5PF
C2 99 0 1.5PF
C3 6 0 1.5PF
C4 1 0 1.5PF
C5 3 0 1.5PF
.ENDS 74LVT125f
*INCLUDE LVT.LIB
**********
*SRC=74LVT244f;74LVT244f;BiCMOS;LVT (fast);I/O Only
*SYM=LVT
.SUBCKT 74LVT244f D E Q VCC
* Note: use ABSTOL=1n simulator option to aid convergence
X1 1 99 6 IN_DF
X2 1 90 99 6 INVBF
X4 90 3 2 99 6 6 OUTCKTF 
L1 2 Q 5NH
L2 VCC 99 6NH
L3 0 6 6NH
L4 D 1 6NH
L5 E 3 6NH
C1 2 0 1.5PF
C2 99 0 1.5PF
C3 6 0 1.5PF
C4 1 0 1.5PF
C5 3 0 1.5PF
.ENDS 74LVT244f
*INCLUDE LVT.LIB
**********
*SRC=74LVT273f;74LVT273f;BiCMOS;LVT (fast);I/O Only
*SYM=LVT
.SUBCKT 74LVT273f D E Q VCC
* Note: use ABSTOL=1n simulator option to aid convergence
X1 1 99 6 IN_DF
X2 1 90 99 6 INVAF
X4 90 3 2 99 6 6 OUTCKTF 
L1 2 Q 5NH
L2 VCC 99 6NH
L3 0 6 6NH
L4 D 1 6NH
L5 E 3 6NH
C1 2 0 1.5PF
C2 99 0 1.5PF
C3 6 0 1.5PF
C4 1 0 1.5PF
C5 3 0 1.5PF
.ENDS 74LVT273f
*INCLUDE LVT.LIB
**********
*SRC=74LVT573f;74LVT573f;BiCMOS;LVT (fast);I/O Only
*SYM=LVT
.SUBCKT 74LVT573f D E Q VCC
* Note: use ABSTOL=1n simulator option to aid convergence
X1 1 99 6 IN_DF
X2 1 90 99 6 INVAF
X4 90 3 2 99 6 6 OUTCKTF 
L1 2 Q 5NH
L2 VCC 99 6NH
L3 0 6 6NH
L4 D 1 6NH
L5 E 3 6NH
C1 2 0 1.5PF
C2 99 0 1.5PF
C3 6 0 1.5PF
C4 1 0 1.5PF
C5 3 0 1.5PF
.ENDS 74LVT573f
*INCLUDE LVT.LIB
**********
*SRC=74LVT574f;74LVT574f;BiCMOS;LVT (fast);I/O Only
*SYM=LVT
.SUBCKT 74LVT574f D E Q VCC
* Note: use ABSTOL=1n simulator option to aid convergence
X1 1 99 6 IN_DF
X2 1 90 99 6 INVAF
X4 90 3 2 99 6 6 OUTCKTF 
L1 2 Q 5NH
L2 VCC 99 6NH
L3 0 6 6NH
L4 D 1 6NH
L5 E 3 6NH
C1 2 0 1.5PF
C2 99 0 1.5PF
C3 6 0 1.5PF
C4 1 0 1.5PF
C5 3 0 1.5PF
.ENDS 74LVT574f
*INCLUDE LVT.LIB
**********
*SRC=74LVT240f;74LVT240f;BiCMOS;LVT (fast);I/O Only
*SYM=LVT
.SUBCKT 74LVT240f D E Q VCC
* Note: use ABSTOL=1n simulator option to aid convergence
X1 1 99 6 IN_DF
X2 1 90 99 6 INVBF
X3 90 91 99 6 INVBF
X4 91 3 2 99 6 6 OUTCKTF 
VOE1 8 0 0.0
L1 2 Q 5NH
L2 VCC 99 6NH
L3 0 6 6NH
L4 D 1 6NH
L5 E 3 6NH
C1 2 0 1.5PF
C2 99 0 1.5PF
C3 6 0 1.5PF
C4 1 0 1.5PF
C5 3 0 1.5PF
.ENDS 74LVT240f
*INCLUDE LVT.LIB
**********
*SRC=74LVT245f;74LVT245f;BiCMOS;LVT (fast);I/O Only
*SYM=LVT
.SUBCKT 74LVT245f D E Q VCC
* Note: use ABSTOL=1n simulator option to aid convergence
X1 1 99 6 IN_DF
X2 1 90 99 6 INVDF
X3 90 3 2 99 6 6 OUTCKTF 
X4 2 99 6 IN_DF
X5 2 91 99 6 INVDF
X6 91 8 1 99 6 6 OUTCKTF 
VOE1 8 0 0.0
L1 2 Q 5NH
L2 VCC 99 6NH
L3 0 6 6NH
L4 D 1 6NH
L5 E 3 6NH
C1 2 0 1.5PF
C2 99 0 1.5PF
C3 6 0 1.5PF
C4 1 0 1.5PF
C5 3 0 1.5PF
.ENDS 74LVT245f
*INCLUDE LVT.LIB
**********
*SRC=74LVT646f;74LVT646f;BiCMOS;LVT (fast);I/O Only
*SYM=LVT
.SUBCKT 74LVT646f D E Q VCC
* Note: use ABSTOL=1n simulator option to aid convergence
X1 1 99 6 IN_DF
X2 1 90 99 6 INVDF
X3 90 3 2 99 6 6 OUTCKTF 
X4 2 99 6 IN_DF
X5 2 91 99 6 INVDF
X6 91 8 1 99 6 6 OUTCKTF 
VOE1 8 0 0.0
L1 2 Q 5NH
L2 VCC 99 6NH
L3 0 6 6NH
L4 D 1 6NH
L5 E 3 6NH
C1 2 0 1.5PF
C2 99 0 1.5PF
C3 6 0 1.5PF
C4 1 0 1.5PF
C5 3 0 1.5PF
.ENDS 74LVT646f
*INCLUDE LVT.LIB
**********
*SRC=74LVT543f;74LVT543f;BiCMOS;LVT (fast);I/O Only
*SYM=LVT
.SUBCKT 74LVT543f D E Q VCC
* Note: use ABSTOL=1n simulator option to aid convergence
X1 1 99 6 IN_DF
X2 1 90 99 6 INVCF
X3 90 3 2 99 6 6 OUTCKTF 
X4 2 99 6 IN_DF
X5 2 91 99 6 INVCF
X6 91 8 1 99 6 6 OUTCKTF
VOE1 8 0 0.0
L1 2 Q 5NH
L2 VCC 99 6NH
L3 0 6 6NH
L4 D 1 6NH
L5 E 3 6NH
C1 2 0 1.5PF
C2 99 0 1.5PF
C3 6 0 1.5PF
C4 1 0 1.5PF
C5 3 0 1.5PF
.ENDS 74LVT543f
*INCLUDE LVT.LIB
**********
*SRC=74LVT652f;74LVT652f;BiCMOS;LVT (fast);I/O Only
*SYM=LVT
.SUBCKT 74LVT652f D E Q VCC
* Note: use ABSTOL=1n simulator option to aid convergence
X1 1 99 6 IN_DF
X2 1 90 99 6 INVDF
X3 90 3 2 99 6 6 OUTCKTF 
X4 2 99 6 IN_DF
X5 2 91 99 6 INVDF
X6 91 8 1 99 6 6 OUTCKTF
VOE1 8 0 0.0
L1 2 Q 5NH
L2 VCC 99 6NH
L3 0 6 6NH
L4 D 1 6NH
L5 E 3 6NH
C1 2 0 1.5PF
C2 99 0 1.5PF
C3 6 0 1.5PF
C4 1 0 1.5PF
C5 3 0 1.5PF
.ENDS 74LVT652f
*INCLUDE LVT.LIB
**********
*SRC=74LVT2952f;74LVT2952f;BiCMOS;LVT (fast);I/O Only
*SYM=LVT
.SUBCKT 74LVT2952f D E Q VCC
* Note: use ABSTOL=1n simulator option to aid convergence
X1 1 99 6 IN_DF
X2 1 90 99 6 INVDF
X3 90 3 2 99 6 6 OUTCKTF 
X4 2 99 6 IN_DF
X5 2 91 99 6 INVDF
X6 91 8 1 99 6 6 OUTCKTF
VOE1 8 0 0.0
L1 2 Q 5NH
L2 VCC 99 6NH
L3 0 6 6NH
L4 D 1 6NH
L5 E 3 6NH
C1 2 0 1.5PF
C2 99 0 1.5PF
C3 6 0 1.5PF
C4 1 0 1.5PF
C5 3 0 1.5PF
.ENDS 74LVT2952f
*INCLUDE LVT.LIB
* ************************
* IsSpice Models         *
* Slow Case(s)           *
* ************************
**********
*SRC=74LVT125s;74LVT125s;BiCMOS;LVT (slow);I/O Only
*SYM=LVT
.SUBCKT 74LVT125s D E Q VCC
* Note: use ABSTOL=1n simulator option to aid convergence
X1 1 99 6 IN_DS
X2 1 90 99 6 INVBS
X4 90 3 2 99 6 6 OUTCKTS 
L1 2 Q 5NH
L2 VCC 99 6NH
L3 0 6 6NH
L4 D 1 6NH
L5 E 3 6NH
C1 2 0 1.5PF
C2 99 0 1.5PF
C3 6 0 1.5PF
C4 1 0 1.5PF
C5 3 0 1.5PF
.ENDS 74LVT125s
*INCLUDE LVT.LIB
**********
*SRC=74LVT244s;74LVT244s;BiCMOS;LVT (slow);I/O Only
*SYM=LVT
.SUBCKT 74LVT244s D E Q VCC
* Note: use ABSTOL=1n simulator option to aid convergence
X1 1 99 6 IN_DS
X2 1 90 99 6 INVBS
X4 90 3 2 99 6 6 OUTCKTS 
L1 2 Q 5NH
L2 VCC 99 6NH
L3 0 6 6NH
L4 D 1 6NH
L5 E 3 6NH
C1 2 0 1.5PF
C2 99 0 1.5PF
C3 6 0 1.5PF
C4 1 0 1.5PF
C5 3 0 1.5PF
.ENDS 74LVT244s
*INCLUDE LVT.LIB
**********
*SRC=74LVT273s;74LVT273s;BiCMOS;LVT (slow);I/O Only
*SYM=LVT
.SUBCKT 74LVT273s D E Q VCC
* Note: use ABSTOL=1n simulator option to aid convergence
X1 1 99 6 IN_DS 
X2 1 90 99 6 INVAS
X4 90 3 2 99 6 6 OUTCKTS 
L1 2 Q 5NH
L2 VCC 99 6NH
L3 0 6 6NH
L4 D 1 6NH
L5 E 3 6NH
C1 2 0 1.5PF
C2 99 0 1.5PF
C3 6 0 1.5PF
C4 1 0 1.5PF
C5 3 0 1.5PF
.ENDS 74LVT273s
*INCLUDE LVT.LIB
**********
*SRC=74LVT573s;74LVT573s;BiCMOS;LVT (slow);I/O Only
*SYM=LVT
.SUBCKT 74LVT573s D E Q VCC
* Note: use ABSTOL=1n simulator option to aid convergence
X1 1 99 6 IN_DS 
X2 1 90 99 6 INVAS
X4 90 3 2 99 6 6 OUTCKTS 
L1 2 Q 5NH
L2 VCC 99 6NH
L3 0 6 6NH
L4 D 1 6NH
L5 E 3 6NH
C1 2 0 1.5PF
C2 99 0 1.5PF
C3 6 0 1.5PF
C4 1 0 1.5PF
C5 3 0 1.5PF
.ENDS 74LVT573s
*INCLUDE LVT.LIB
**********
*SRC=74LVT574s;74LVT574s;BiCMOS;LVT (slow);I/O Only
*SYM=LVT
.SUBCKT 74LVT574s D E Q VCC
* Note: use ABSTOL=1n simulator option to aid convergence
X1 1 99 6 IN_DS 
X2 1 90 99 6 INVAS
X4 90 3 2 99 6 6 OUTCKTS 
L1 2 Q 5NH
L2 VCC 99 6NH
L3 0 6 6NH
L4 D 1 6NH
L5 E 3 6NH
C1 2 0 1.5PF
C2 99 0 1.5PF
C3 6 0 1.5PF
C4 1 0 1.5PF
C5 3 0 1.5PF
.ENDS 74LVT574s
*INCLUDE LVT.LIB
**********
*SRC=74LVT240s;74LVT240s;BiCMOS;LVT (slow);I/O Only
*SYM=LVT
.SUBCKT 74LVT240s D E Q VCC
* Note: use ABSTOL=1n simulator option to aid convergence
X1 1 99 6 IN_DS
X2 1 90 99 6 INVBS
X3 90 91 99 6 INVBS
X4 91 3 2 99 6 6 OUTCKTS 
L1 2 Q 5NH
L2 VCC 99 6NH
L3 0 6 6NH
L4 D 1 6NH
L5 E 3 6NH
C1 2 0 1.5PF
C2 99 0 1.5PF
C3 6 0 1.5PF
C4 1 0 1.5PF
C5 3 0 1.5PF
.ENDS 74LVT240s
*INCLUDE LVT.LIB
**********
*SRC=74LVT245s;74LVT245s;BiCMOS;LVT (slow);I/O Only
*SYM=LVT
.SUBCKT 74LVT245s D E Q VCC
* Note: use ABSTOL=1n simulator option to aid convergence
X1 1 99 6 IN_DS
X2 1 90 99 6 INVDS
X3 90 3 2 99 6 6 OUTCKTS 
X4 2 99 6 IN_DS
X5 2 91 99 6 INVDS
X6 91 8 1 99 6 6 OUTCKTS 
VOE1 8 0 0.0
L1 2 Q 5NH
L2 VCC 99 6NH
L3 0 6 6NH
L4 D 1 6NH
L5 E 3 6NH
C1 2 0 1.5PF
C2 99 0 1.5PF
C3 6 0 1.5PF
C4 1 0 1.5PF
C5 3 0 1.5PF
.ENDS 74LVT245s
*INCLUDE LVT.LIB
**********
*SRC=74LVT646s;74LVT646s;BiCMOS;LVT (slow);I/O Only
*SYM=LVT
.SUBCKT 74LVT646s D E Q VCC
* Note: use ABSTOL=1n simulator option to aid convergence
X1 1 99 6 IN_DS
X2 1 90 99 6 INVDS
X3 90 3 2 99 6 6 OUTCKTS 
X4 2 99 6 IN_DS
X5 2 91 99 6 INVDS
X6 91 8 1 99 6 6 OUTCKTS 
VOE1 8 0 0.0
L1 2 Q 5NH
L2 VCC 99 6NH
L3 0 6 6NH
L4 D 1 6NH
L5 E 3 6NH
C1 2 0 1.5PF
C2 99 0 1.5PF
C3 6 0 1.5PF
C4 1 0 1.5PF
C5 3 0 1.5PF
.ENDS 74LVT646s
*INCLUDE LVT.LIB
**********
*SRC=74LVT543s;74LVT543s;BiCMOS;LVT (slow);I/O Only
*SYM=LVT
.SUBCKT 74LVT543s D E Q VCC
* Note: use ABSTOL=1n simulator option to aid convergence
X1 1 99 6 IN_DS
X2 1 90 99 6 INVCS
X3 90 3 2 99 6 6 OUTCKTS 
X4 2 99 6 IN_DS
X5 2 91 99 6 INVCS
X6 91 8 1 99 6 6 OUTCKTS
VOE1 8 0 0.0
L1 2 Q 5NH
L2 VCC 99 6NH
L3 0 6 6NH
L4 D 1 6NH
L5 E 3 6NH
C1 2 0 1.5PF
C2 99 0 1.5PF
C3 6 0 1.5PF
C4 1 0 1.5PF
C5 3 0 1.5PF
.ENDS 74LVT543s
*INCLUDE LVT.LIB
**********
*SRC=74LVT652s;74LVT652s;BiCMOS;LVT (slow);I/O Only
*SYM=LVT
.SUBCKT 74LVT652s D E Q VCC
* Note: use ABSTOL=1n simulator option to aid convergence
X1 1 99 6 IN_DS
X2 1 90 99 6 INVDS
X3 90 3 2 99 6 6 OUTCKTS 
X4 2 99 6 IN_DS
X5 2 91 99 6 INVDS
X6 91 8 1 99 6 6 OUTCKTS 
VOE1 8 0 0.0
L1 2 Q 5NH
L2 VCC 99 6NH
L3 0 6 6NH
L4 D 1 6NH
L5 E 3 6NH
C1 2 0 1.5PF
C2 99 0 1.5PF
C3 6 0 1.5PF
C4 1 0 1.5PF
C5 3 0 1.5PF
.ENDS 74LVT652s
*INCLUDE LVT.LIB
**********
*SRC=74LVT2952s;74LVT2952s;BiCMOS;LVT (slow);I/O Only
*SYM=LVT
.SUBCKT 74LVT2952s D E Q VCC
* Note: use ABSTOL=1n simulator option to aid convergence
X1 1 99 6 IN_DS
X2 1 90 99 6 INVDS
X3 90 3 2 99 6 6 OUTCKTS 
X4 2 99 6 IN_DS
X5 2 91 99 6 INVDS
X6 91 8 1 99 6 6 OUTCKTS 
VOE1 8 0 0.0
L1 2 Q 5NH
L2 VCC 99 6NH
L3 0 6 6NH
L4 D 1 6NH
L5 E 3 6NH
C1 2 0 1.5PF
C2 99 0 1.5PF
C3 6 0 1.5PF
C4 1 0 1.5PF
C5 3 0 1.5PF
.ENDS 74LVT2952s
*INCLUDE LVT.LIB
**********
* Philips Semiconductors - IN_DN - Nominal
.SUBCKT IN_DN 9902 9901 9904
X2Q1 9902 9902 9904 9904 ESDXXXXN
M1M1 9901 9902 1 9901 MHS4XPENL L=1.0U W=3.298U
+ AD=6.596P AS=6.596P PD=10.596U PS=10.596U NRD=0.606 NRS=0.606
M1M2 9901 1 2 9901 MHS4XPENL L=1.0U W=13.298U
+ AD=26.596P AS=26.596P PD=30.596U PS=30.596U NRD=0.150 NRS=0.150
M1M3 1 9902 9904 9904 MHS4XNENL L=1.0U W=1.926U
+ AD=3.852P AS=3.852P PD=7.852U PS=7.852U NRD=1.038 NRS=1.038
M1M4 9902 1 9904 9904 MHS4XNENL L=1.0U W=1.926U
+ AD=3.852P AS=3.852P PD=7.852U PS=7.852U NRD=1.038 NRS=1.038
Q1Q1 9902 2 2 DA04AASN
.ENDS IN_DN
* Philips Semiconductors - INVAN - Nominal
*INCLUDE LVT.LIB
*****
.SUBCKT INVAN 9902 9903 9901 9904
MM1 9901 9902 9903 9901 MHS4XPENL L=1.0U W=94.298U
+ AD=188.596P AS=188.596P PD=192.596U PS=192.596U NRD=0.021 NRS=0.021
MM2 9903 9902 9904 9904 MHS4XNENL L=1.0U W=33.926U
+ AD=67.852P AS=67.852P PD=71.852U PS=71.852U NRD=0.059 NRS=0.059
.ENDS INVAN
* Philips Semiconductors - INVBN
*INCLUDE LVT.LIB
*****
.SUBCKT INVBN 9902 9903 9901 9904
MM1 9901 9902 9903 9901 MHS4XPENL L=1.0U W=199.298U
+ AD=398.596P AS=398.596P PD=402.596U PS=402.596U NRD=0.010 NRS=0.010
MM2 9903 9902 9904 9904 MHS4XNENL L=1.0U W=104.926U
+ AD=209.852P AS=209.852P PD=213.852U PS=213.852U NRD=0.019 NRS=0.019
.ENDS INVBN
* Philips Semiconductors - INVCN
*INCLUDE LVT.LIB
*****
.SUBCKT INVCN 9902 9903 9901 9904
MM1 9901 9902 9903 9901 MHS4XPENL L=1.0U W=139.298U
+ AD=278.596P AS=278.596P PD=282.596U PS=282.596U NRD=0.014 NRS=0.014
MM2 9903 9902 9904 9904 MHS4XNENL L=1.0U W=149.926U
+ AD=299.852P AS=299.852P PD=303.852U PS=303.852U NRD=0.013 NRS=0.013
.ENDS INVCN
* Philips Semiconductors - INVDN
*INCLUDE LVT.LIB
*****
.SUBCKT INVDN 9902 9903 9901 9904
MM1 9901 9902 9903 9901 MHS4XPENL L=1.0U W=239.298U
+ AD=478.596P AS=478.596P PD=482.596U PS=482.596U NRD=0.008 NRS=0.008
MM2 9903 9902 9904 9904 MHS4XNENL L=1.0U W=204.926U
+ AD=409.852P AS=409.852P PD=413.852U PS=413.852U NRD=0.010 NRS=0.010
.ENDS INVDN
* Philips Semiconductors - OUTCKTN
*INCLUDE LVT.LIB
*****
.SUBCKT OUTCKTN 9903 9911 9906 9901 9904 9917
X1Q1 9906 9906 9904 9904 ESDXXXXN
M91M1 9901 9903 2 9907 MHS4XPENL L=1.0U W=69.298U
+ AD=138.596P AS=138.596P PD=142.596U PS=142.596U NRD=0.029 NRS=0.029
M91M2 2 49 3 9907 MHS4XPENL L=1.0U W=49.298U
+ AD=98.596P AS=98.596P PD=102.596U PS=102.596U NRD=0.041 NRS=0.041
M91M3 9901 9903 4 9907 MHS4XPENL L=1.0U W=69.298U
+ AD=138.596P AS=138.596P PD=142.596U PS=142.596U NRD=0.029 NRS=0.029
M91M4 4 49 25 9907 MHS4XPENL L=1.0U W=49.298U
+ AD=98.596P AS=98.596P PD=102.596U PS=102.596U NRD=0.041 NRS=0.041
M91M5 3 49 9904 9904 MHS4XNENL L=1.0U W=9.926U
+ AD=19.852P AS=19.852P PD=23.852U PS=23.852U NRD=0.201 NRS=0.201
M91M6 25 9903 9904 9904 MHS4XNENL L=1.0U W=15.926U
+ AD=31.852P AS=31.852P PD=35.852U PS=35.852U NRD=0.126 NRS=0.126
M91M7 3 9903 9904 9904 MHS4XNENL L=1.0U W=9.926U
+ AD=19.852P AS=19.852P PD=23.852U PS=23.852U NRD=0.201 NRS=0.201
M91M8 25 49 9904 9904 MHS4XNENL L=1.0U W=15.926U
+ AD=31.852P AS=31.852P PD=35.852U PS=35.852U NRD=0.126 NRS=0.126
M91M9 9901 39 47 9907 MHS4XPENL L=1.0U W=19.298U
+ AD=38.596P AS=38.596P PD=42.596U PS=42.596U NRD=0.104 NRS=0.104
M91M10 47 9901 9906 9907 MHS4XPENL L=1.0U W=19.298U
+ AD=38.596P AS=38.596P PD=42.596U PS=42.596U NRD=0.104 NRS=0.104
Q91Q1 9901 3 25 DA0ACBSNL
X91D1 9906 47 9904 DB3002AN
X91D2 9901 47 9904 DB3002AN
X91D3 9901 47 9904 DB3002AN
R93R1 9901 5 5K
M93M1 5 49 6 9901 MHS4XPENL L=1.0U W=29.298U
+ AD=58.596P AS=58.596P PD=62.596U PS=62.596U NRD=0.068 NRS=0.068
M93M2 6 32 7 9901 MHS4XPENL L=1.0U W=29.298U
+ AD=58.596P AS=58.596P PD=62.596U PS=62.596U NRD=0.068 NRS=0.068
M93M3 7 9 8 9901 MHS4XPENL L=1.0U W=29.298U
+ AD=58.596P AS=58.596P PD=62.596U PS=62.596U NRD=0.068 NRS=0.068
M93M4 9901 9906 10 9901 MHS4XPENL L=1.0U W=11.298U
+ AD=22.596P AS=22.596P PD=26.596U PS=26.596U NRD=0.177 NRS=0.177
M93M5 9901 10 9 9901 MHS4XPENL L=1.0U W=11.298U
+ AD=22.596P AS=22.596P PD=26.596U PS=26.596U NRD=0.177 NRS=0.177
M93M6 8 49 9904 9904 MHS4XNENL L=1.0U W=4.926U
+ AD=9.852P AS=9.852P PD=13.852U PS=13.852U NRD=0.406 NRS=0.406
M93M7 8 32 9904 9904 MHS4XNENL L=1.0U W=4.926U
+ AD=9.852P AS=9.852P PD=13.852U PS=13.852U NRD=0.406 NRS=0.406
M93M8 8 9 9904 9904 MHS4XNENL L=1.0U W=4.926U
+ AD=9.852P AS=9.852P PD=13.852U PS=13.852U NRD=0.406 NRS=0.406
M93M9 10 9906 9904 9904 MHS4XNENL L=1.0U W=7.926U
+ AD=15.852P AS=15.852P PD=19.852U PS=19.852U NRD=0.252 NRS=0.252
M93M10 9 10 9904 9904 MHS4XNENL L=1.0U W=11.926U
+ AD=23.852P AS=23.852P PD=27.852U PS=27.852U NRD=0.168 NRS=0.168
Q93Q1 9901 8 35 DA06CBSNL
Q93Q2 8 8 11 DA06CBSNL
X93D1 11 9906 9904 DB0308AN
M96M1 9901 13 12 9901 MHS4XPENL L=1.0U W=29.298U
+ AD=58.596P AS=58.596P PD=62.596U PS=62.596U NRD=0.068 NRS=0.068
M96M2 9901 9911 12 9901 MHS4XPENL L=1.0U W=29.298U
+ AD=58.596P AS=58.596P PD=62.596U PS=62.596U NRD=0.068 NRS=0.068
M96M3 9901 44 12 9901 MHS4XPENL L=1.0U W=19.298U
+ AD=38.596P AS=38.596P PD=42.596U PS=42.596U NRD=0.104 NRS=0.104
M96M4 47 13 26 9907 MHS4XPENL L=1.0U W=39.298U
+ AD=78.596P AS=78.596P PD=82.596U PS=82.596U NRD=0.051 NRS=0.051
M96M5 47 9911 26 9907 MHS4XPENL L=1.0U W=19.298U
+ AD=38.596P AS=38.596P PD=42.596U PS=42.596U NRD=0.104 NRS=0.104
M96M6 47 44 26 9907 MHS4XPENL L=1.0U W=49.298U
+ AD=98.596P AS=98.596P PD=102.596U PS=102.596U NRD=0.041 NRS=0.041
M96M7 12 13 14 9904 MHS4XNENL L=1.0U W=9.926U
+ AD=19.852P AS=19.852P PD=23.852U PS=23.852U NRD=0.201 NRS=0.201
M96M8 14 9911 15 9904 MHS4XNENL L=1.0U W=9.926U
+ AD=19.852P AS=19.852P PD=23.852U PS=23.852U NRD=0.201 NRS=0.201
M96M9 15 44 9904 9904 MHS4XNENL L=1.0U W=9.926U
+ AD=19.852P AS=19.852P PD=23.852U PS=23.852U NRD=0.201 NRS=0.201
M96M10 26 44 16 9904 MHS4XNENL L=1.0U W=7.926U
+ AD=15.852P AS=15.852P PD=19.852U PS=19.852U NRD=0.252 NRS=0.252
M96M11 16 9911 17 9904 MHS4XNENL L=1.0U W=7.926U
+ AD=15.852P AS=15.852P PD=19.852U PS=19.852U NRD=0.252 NRS=0.252
M96M12 17 13 9904 9904 MHS4XNENL L=1.0U W=7.926U
+ AD=15.852P AS=15.852P PD=19.852U PS=19.852U NRD=0.252 NRS=0.252
Q96Q1 9901 12 26 DA08CBSNL
M97M1 9901 39 18 9901 MHS4XPENL L=1.0U W=19.298U
+ AD=38.596P AS=38.596P PD=42.596U PS=42.596U NRD=0.104 NRS=0.104
M97M2 18 20 19 9901 MHS4XPENL L=1.0U W=19.298U
+ AD=38.596P AS=38.596P PD=42.596U PS=42.596U NRD=0.104 NRS=0.104
M97M3 19 49 21 9901 MHS4XPENL L=1.0U W=19.298U
+ AD=38.596P AS=38.596P PD=42.596U PS=42.596U NRD=0.104 NRS=0.104
M97M4 21 9903 22 9901 MHS4XPENL L=1.0U W=19.298U
+ AD=38.596P AS=38.596P PD=42.596U PS=42.596U NRD=0.104 NRS=0.104
M97M5 9901 26 20 9901 MHS4XPENL L=1.0U W=7.298U
+ AD=14.596P AS=14.596P PD=18.596U PS=18.596U NRD=0.274 NRS=0.274
M97M6 22 39 9904 9904 MHS4XNENL L=1.0U W=5.926U
+ AD=11.852P AS=11.852P PD=15.852U PS=15.852U NRD=0.337 NRS=0.337
M97M7 22 9903 9904 9904 MHS4XNENL L=1.0U W=5.926U
+ AD=11.852P AS=11.852P PD=15.852U PS=15.852U NRD=0.337 NRS=0.337
M97M8 23 9903 9904 9904 MHS4XNENL L=1.0U W=5.926U
+ AD=11.852P AS=11.852P PD=15.852U PS=15.852U NRD=0.337 NRS=0.337
M97M9 22 49 9904 9904 MHS4XNENL L=1.0U W=5.926U
+ AD=11.852P AS=11.852P PD=15.852U PS=15.852U NRD=0.337 NRS=0.337
M97M10 23 49 9904 9904 MHS4XNENL L=1.0U W=5.926U
+ AD=11.852P AS=11.852P PD=15.852U PS=15.852U NRD=0.337 NRS=0.337
M97M11 23 39 9904 9904 MHS4XNENL L=1.0U W=5.926U
+ AD=11.852P AS=11.852P PD=15.852U PS=15.852U NRD=0.337 NRS=0.337
M97M12 20 26 9904 9904 MHS4XNENL L=1.0U W=19.926U
+ AD=39.852P AS=39.852P PD=43.852U PS=43.852U NRD=0.100 NRS=0.100
Q97Q1 9901 22 23 DA04AASN
Q97Q2 26 23 9904 DA08CBSNL
Q97Q3 22 22 24 DA04AASN
X97D1 24 26 9904 DB0308AN
M9M1 9901 9903 13 9901 MHS4XPENL L=1.0U W=19.298U
+ AD=38.596P AS=38.596P PD=42.596U PS=42.596U NRD=0.104 NRS=0.104
M9M2 13 9903 9904 9904 MHS4XNENL L=1.0U W=34.926U
+ AD=69.852P AS=69.852P PD=73.852U PS=73.852U NRD=0.057 NRS=0.057
M9M3 9901 9903 32 9901 MHS4XPENL L=1.0U W=79.298U
+ AD=158.596P AS=158.596P PD=162.596U PS=162.596U NRD=0.025 NRS=0.025
M9M4 32 9903 9904 9904 MHS4XNENL L=1.0U W=109.926U
+ AD=219.852P AS=219.852P PD=223.852U PS=223.852U NRD=0.018 NRS=0.018
M92M1 9901 26 25 9907 MHS4XPENL L=1.0U W=99.298U
+ AD=198.596P AS=198.596P PD=202.596U PS=202.596U NRD=0.020 NRS=0.020
M92M2 9901 26 9906 9907 MHS4XPENL L=1.0U W=999.298U
+ AD=1998.596P AS=1998.596P PD=2002.596U PS=2002.596U NRD=0.002 NRS=0.002
X92D1 9901 27 9904 DB3002AN
X92D2 9901 27 9904 DB3002AN
X92D3 9901 27 9904 DB3002AN
X92D4 9901 27 9904 DB3002AN
X92D5 9901 27 9904 DB3002AN
Q92Q1 28 25 9906 DA283ASN
Q92Q2 28 25 9906 DA283ASN
Q92Q3 9906 35 9917 DA283ASN
Q92Q4 9906 35 9917 DA283ASN
Q92Q5 9906 35 9917 DA283ASN
Q92Q6 9906 35 9917 DA283ASN
R92R1 35 9917 10K
R92R2 27 28 5
M9M11 9906 9903 1 9904 MHS4XNENL L=1.0U W=49.926U
+ AD=99.852P AS=99.852P PD=103.852U PS=103.852U NRD=0.040 NRS=0.040
M9M12 1 9911 9917 9904 MHS4XNENL L=1.0U W=49.926U
+ AD=99.852P AS=99.852P PD=103.852U PS=103.852U NRD=0.040 NRS=0.040
M99M1 30 49 29 9901 MHS4XPENL L=1.0U W=119.298U
+ AD=238.596P AS=238.596P PD=242.596U PS=242.596U NRD=0.017 NRS=0.017
M99M2 29 32 31 9901 MHS4XPENL L=1.0U W=119.298U
+ AD=238.596P AS=238.596P PD=242.596U PS=242.596U NRD=0.017 NRS=0.017
M99M5 9901 33 30 9901 MHS4XPENL L=1.0U W=4.298U
+ AD=8.596P AS=8.596P PD=12.596U PS=12.596U NRD=0.465 NRS=0.465
M99M6 9901 34 30 9901 MHS4XPENL L=1.0U W=119.298U
+ AD=238.596P AS=238.596P PD=242.596U PS=242.596U NRD=0.017 NRS=0.017
M99M7 9901 9906 33 9901 MHS4XPENL L=1.0U W=2.298U
+ AD=4.596P AS=4.596P PD=8.596U PS=8.596U NRD=0.870 NRS=0.870
M99M8 33 9906 9904 9904 MHS4XNENL L=1.0U W=4.926U
+ AD=9.852P AS=9.852P PD=13.852U PS=13.852U NRD=0.406 NRS=0.406
M99M9 35 32 9904 9904 MHS4XNENL L=1.0U W=39.926U
+ AD=79.852P AS=79.852P PD=83.852U PS=83.852U NRD=0.050 NRS=0.050
M99M10 35 49 9904 9904 MHS4XNENL L=1.0U W=39.926U
+ AD=79.852P AS=79.852P PD=83.852U PS=83.852U NRD=0.050 NRS=0.050
M99M11 31 32 9904 9904 MHS4XNENL L=1.0U W=9.926U
+ AD=19.852P AS=19.852P PD=23.852U PS=23.852U NRD=0.201 NRS=0.201
M99M12 31 49 9904 9904 MHS4XNENL L=1.0U W=9.926U
+ AD=19.852P AS=19.852P PD=23.852U PS=23.852U NRD=0.201 NRS=0.201
Q99Q1 9901 31 35 DA0ACBSNL
X99D1 31 9906 9904 DB0308AN
M99M13 9901 49 36 9901 MHS4XPENL L=1.0U W=49.298U
+ AD=98.596P AS=98.596P PD=102.596U PS=102.596U NRD=0.041 NRS=0.041
M99M14 36 32 34 9901 MHS4XPENL L=1.0U W=49.298U
+ AD=98.596P AS=98.596P PD=102.596U PS=102.596U NRD=0.041 NRS=0.041
M99M15 34 32 9904 9904 MHS4XNENL L=1.0U W=24.926U
+ AD=49.852P AS=49.852P PD=53.852U PS=53.852U NRD=0.080 NRS=0.080
M99M16 34 49 9904 9904 MHS4XNENL L=1.0U W=24.926U
+ AD=49.852P AS=49.852P PD=53.852U PS=53.852U NRD=0.080 NRS=0.080
C9C2 9917 9901 1U 
C9C3 9917 9901 1U 
E910E7 41 42 40 37 0.5
V910V3 42 0 1.25
E910E8 38 0 41 0 3
E910E9 45 0 46 0 1
V910V4 47 46 0.5
E910E10 43 48 38 0 -1
V910V5 48 0 3
V910V6 40 9901 0.3
R910R5 9906 37 5K 
M910M1 37 9911 0 9904 MHS4XNENL L=1.0U W=9.926U
+ AD=19.852P AS=19.852P PD=23.852U PS=23.852U NRD=0.201 NRS=0.201
R910R8 38 9904 10MEG 
M910M11 39 38 9904 9904 MHS4XNENL L=1.0U W=29.926U
+ AD=59.852P AS=59.852P PD=63.852U PS=63.852U NRD=0.067 NRS=0.067
M910M12 47 38 39 9901 MHS4XPENL L=1.0U W=59.298U
+ AD=118.596P AS=118.596P PD=122.596U PS=122.596U NRD=0.034 NRS=0.034
R910R10 41 0 10MEG 
M910M13 44 43 9904 9904 MHS4XNENL L=1.0U W=29.926U
+ AD=59.852P AS=59.852P PD=63.852U PS=63.852U NRD=0.067 NRS=0.067
M910M14 9901 43 44 9901 MHS4XPENL L=1.0U W=59.298U
+ AD=118.596P AS=118.596P PD=122.596U PS=122.596U NRD=0.034 NRS=0.034
X910D4 38 45 9904 DB3002AN
R910R11 46 0 10MEG 
M2M1 9901 9911 49 9901 MHS4XPENL L=1.0U W=199.298U
+ AD=398.596P AS=398.596P PD=402.596U PS=402.596U NRD=0.010 NRS=0.010
M2M2 49 9911 9904 9904 MHS4XNENL L=1.0U W=104.926U
+ AD=209.852P AS=209.852P PD=213.852U PS=213.852U NRD=0.019 NRS=0.019
.ENDS OUTCKTN
*INCLUDE LVT.LIB
*****
* Philips Semiconductors - IN_DF - Nominal
.SUBCKT IN_DF 9902 9901 9904
X2Q1 9902 9902 9904 9904 ESDXXXXF
M1M1 9901 9902 1 9901 MHS4XPEF L=1.0U W=3.298U
+ AD=6.596P AS=6.596P PD=10.596U PS=10.596U NRD=0.606 NRS=0.606
M1M2 9901 1 2 9901 MHS4XPEF L=1.0U W=13.298U
+ AD=26.596P AS=26.596P PD=30.596U PS=30.596U NRD=0.150 NRS=0.150
M1M3 1 9902 9904 9904 MHS4XNEF L=1.0U W=1.926U
+ AD=3.852P AS=3.852P PD=7.852U PS=7.852U NRD=1.038 NRS=1.038
M1M4 9902 1 9904 9904 MHS4XNEF L=1.0U W=1.926U
+ AD=3.852P AS=3.852P PD=7.852U PS=7.852U NRD=1.038 NRS=1.038
Q1Q1 9902 2 2 DA04AASF
.ENDS IN_DF
* Philips Semiconductors - INVAF - Nominal
*INCLUDE LVT.LIB
*****
.SUBCKT INVAF 9902 9903 9901 9904
MM1 9901 9902 9903 9901 MHS4XPEF L=1.0U W=94.298U
+ AD=188.596P AS=188.596P PD=192.596U PS=192.596U NRD=0.021 NRS=0.021
MM2 9903 9902 9904 9904 MHS4XNEF L=1.0U W=33.926U
+ AD=67.852P AS=67.852P PD=71.852U PS=71.852U NRD=0.059 NRS=0.059
.ENDS INVAF
* Philips Semiconductors - INVBF
*INCLUDE LVT.LIB
*****
.SUBCKT INVBF 9902 9903 9901 9904
MM1 9901 9902 9903 9901 MHS4XPEF L=1.0U W=199.298U
+ AD=398.596P AS=398.596P PD=402.596U PS=402.596U NRD=0.010 NRS=0.010
MM2 9903 9902 9904 9904 MHS4XNEF L=1.0U W=104.926U
+ AD=209.852P AS=209.852P PD=213.852U PS=213.852U NRD=0.019 NRS=0.019
.ENDS INVBF
* Philips Semiconductors - INVCF
*INCLUDE LVT.LIB
*****
.SUBCKT INVCF 9902 9903 9901 9904
MM1 9901 9902 9903 9901 MHS4XPEF L=1.0U W=139.298U
+ AD=278.596P AS=278.596P PD=282.596U PS=282.596U NRD=0.014 NRS=0.014
MM2 9903 9902 9904 9904 MHS4XNEF L=1.0U W=149.926U
+ AD=299.852P AS=299.852P PD=303.852U PS=303.852U NRD=0.013 NRS=0.013
.ENDS INVCF
* Philips Semiconductors - INVDF
*INCLUDE LVT.LIB
*****
.SUBCKT INVDF 9902 9903 9901 9904
MM1 9901 9902 9903 9901 MHS4XPEF L=1.0U W=239.298U
+ AD=478.596P AS=478.596P PD=482.596U PS=482.596U NRD=0.008 NRS=0.008
MM2 9903 9902 9904 9904 MHS4XNEF L=1.0U W=204.926U
+ AD=409.852P AS=409.852P PD=413.852U PS=413.852U NRD=0.010 NRS=0.010
.ENDS INVDF
* Philips Semiconductors - OUTCKTF
*INCLUDE LVT.LIB
*****
.SUBCKT OUTCKTF 9903 9911 9906 9901 9904 9917
X1Q1 9906 9906 9904 9904 ESDXXXXN
M91M1 9901 9903 2 9907 MHS4XPEF L=1.0U W=69.298U
+ AD=138.596P AS=138.596P PD=142.596U PS=142.596U NRD=0.029 NRS=0.029
M91M2 2 49 3 9907 MHS4XPEF L=1.0U W=49.298U
+ AD=98.596P AS=98.596P PD=102.596U PS=102.596U NRD=0.041 NRS=0.041
M91M3 9901 9903 4 9907 MHS4XPEF L=1.0U W=69.298U
+ AD=138.596P AS=138.596P PD=142.596U PS=142.596U NRD=0.029 NRS=0.029
M91M4 4 49 25 9907 MHS4XPEF L=1.0U W=49.298U
+ AD=98.596P AS=98.596P PD=102.596U PS=102.596U NRD=0.041 NRS=0.041
M91M5 3 49 9904 9904 MHS4XNEF L=1.0U W=9.926U
+ AD=19.852P AS=19.852P PD=23.852U PS=23.852U NRD=0.201 NRS=0.201
M91M6 25 9903 9904 9904 MHS4XNEF L=1.0U W=15.926U
+ AD=31.852P AS=31.852P PD=35.852U PS=35.852U NRD=0.126 NRS=0.126
M91M7 3 9903 9904 9904 MHS4XNEF L=1.0U W=9.926U
+ AD=19.852P AS=19.852P PD=23.852U PS=23.852U NRD=0.201 NRS=0.201
M91M8 25 49 9904 9904 MHS4XNEF L=1.0U W=15.926U
+ AD=31.852P AS=31.852P PD=35.852U PS=35.852U NRD=0.126 NRS=0.126
M91M9 9901 39 47 9907 MHS4XPEF L=1.0U W=19.298U
+ AD=38.596P AS=38.596P PD=42.596U PS=42.596U NRD=0.104 NRS=0.104
M91M10 47 9901 9906 9907 MHS4XPEF L=1.0U W=19.298U
+ AD=38.596P AS=38.596P PD=42.596U PS=42.596U NRD=0.104 NRS=0.104
Q91Q1 9901 3 25 DA0ACBSF
X91D1 9906 47 9904 DB3002AF
X91D2 9901 47 9904 DB3002AF
X91D3 9901 47 9904 DB3002AF
R93R1 9901 5 5K
M93M1 5 49 6 9901 MHS4XPEF L=1.0U W=29.298U
+ AD=58.596P AS=58.596P PD=62.596U PS=62.596U NRD=0.068 NRS=0.068
M93M2 6 32 7 9901 MHS4XPEF L=1.0U W=29.298U
+ AD=58.596P AS=58.596P PD=62.596U PS=62.596U NRD=0.068 NRS=0.068
M93M3 7 9 8 9901 MHS4XPEF L=1.0U W=29.298U