**************************************
*      Model Generated by MODPEX     *
*Copyright(c) Symmetry Design Systems*
*         All Rights Reserved        *
*    UNPUBLISHED LICENSED SOFTWARE   *
*   Contains Proprietary Information *
*      Which is The Property of      *
*     SYMMETRY OR ITS LICENSORS      *
*Commercial Use or Resale Restricted *
*   by Symmetry License Agreement    *
**************************************
* Model generated on Aug  7, 98
* MODEL FORMAT: PSpice
.MODEL mbr130prl d
+IS=9.46301e-05 RS=0.0970914 N=1.50096 EG=0.634145
+XTI=0.4999 BV=1000 IBV=0.0001 CJO=1.62196e-10
+VJ=0.519666 M=0.425758 FC=0.5 TT=1e-09
+KF=0 AF=1

###############################################################################
#                                                                             #
#                                                                             #
#                                                                             #
#        #############################################################        #
#        #                                                           #        #
#        #                           mbr1060                         #        # 
#        #                                                           #        #
#        #                                                           #        #
#        #                  Motorola Power Rectifier                 #        # 
#        #                         10 AMPERES                        #        #
#        #                          60 VOLTS                         #        #
#        #                                                           #        #
#        #               This model was developed by                 #        #
#        #                      Analogy, Inc.                        #        #
#        #                    9205 SW Gemini Dr.                     #        #
#        #                   Beaverton, OR  97005                    #        #
#        #               Copyright 1994 Analogy, Inc.                #        #
#        #                  All Rights Reserved                      #        #
#        #                                                           #        #
#        #    The content of this model is subject to change         #        #
#        #    without notice and may not be modified or altered      #        #
#        #    without permission from Motorola, Inc.  This model     #        #
#        #    has been carefully checked and is believed to be       #        #
#        #    accurate, however neither Analogy nor Motorola         #        #
#        #    assume liability for the use of this model or the      #        #
#        #    results obtained from using it.                        #        #
#        #                                                           #        #
#        #    For more information regarding modeling services,      #        #
#        #    model libraries or simulation products, please         #        #
#        #    call Analogy, Inc. (503) 626-9700.                     #        #
#        #                                                           #        #
#        #############################################################        #
#                                                                             #
#                                                                             #
#                                                                             #
###############################################################################
.model mbr1060 d
+ is= 2.112e-06
+ rs= 0.01986
+ n= 1.066
+ tt= 1e-09
+ cjo= 8.095e-10
+ vj= 0.4425
+ m= 0.4331
+ eg= 0.6
+ xti= 4.37
+ fc= 0.5
+ bv= 72
+ ibv= 0.01
+ kf= 0
+ af= 1
###############################################################################
#                                                                             #
#                                                                             #
#                                                                             #
#        #############################################################        #
#        #                                                           #        #
#        #                         mbr1545ct                         #        # 
#        #                                                           #        #
#        #                                                           #        #
#        #                  Motorola Power Rectifier                 #        # 
#        #                        7.5 AMPERES                        #        #
#        #                         45 VOLTS                          #        #
#        #                                                           #        #
#        #               This model was developed by                 #        #
#        #                      Analogy, Inc.                        #        #
#        #                    9205 SW Gemini Dr.                     #        #
#        #                   Beaverton, OR  97005                    #        #
#        #               Copyright 1994 Analogy, Inc.                #        #
#        #                  All Rights Reserved                      #        #
#        #                                                           #        #
#        #    The content of this model is subject to change         #        #
#        #    without notice and may not be modified or altered      #        #
#        #    without permission from Motorola, Inc.  This model     #        #
#        #    has been carefully checked and is believed to be       #        #
#        #    accurate, however neither Analogy nor Motorola         #        #
#        #    assume liability for the use of this model or the      #        #
#        #    results obtained from using it.                        #        #
#        #                                                           #        #
#        #    For more information regarding modeling services,      #        #
#        #    model libraries or simulation products, please         #        #
#        #    call Analogy, Inc. (503) 626-9700.                     #        #
#        #                                                           #        #
#        #############################################################        #
#                                                                             #
#                                                                             #
#                                                                             #
###############################################################################
.model mbr1545ct d
+ is= 1.416e-06
+ rs= 0.0168
+ n= 1.046
+ tt= 3e-07
+ cjo= 9.703e-10
+ vj= 0.4783
+ m= 0.4664
+ eg= 0.6
+ xti= 3.557
+ fc= 0.5
+ bv= 52
+ ibv= 0.01
+ kf= 0
+ af= 1
**************************************
*      Model Generated by MODPEX     *
*Copyright(c) Symmetry Design Systems*
*         All Rights Reserved        *
*    UNPUBLISHED LICENSED SOFTWARE   *
*   Contains Proprietary Information *
*      Which is The Property of      *
*     SYMMETRY OR ITS LICENSORS      *
*Commercial Use or Resale Restricted *
*   by Symmetry License Agreement    *
**************************************
* Model generated on Jul 31, 98
* MODEL FORMAT: PSpice
.MODEL mbr1100rl d
+IS=0.000528008 RS=0.0710913 N=2.8443 EG=0.823492
+XTI=0.5 BV=1000 IBV=0.0001 CJO=2.61997e-10
+VJ=0.576476 M=0.468617 FC=0.5 TT=1e-09
+KF=0 AF=1

###############################################################################
#                                                                             #
#                                                                             #
#                                                                             #
#        #############################################################        #
#        #                                                           #        #
#        #                         mbr2535ctl                        #        # 
#        #                                                           #        #
#        #                                                           #        #
#        #                  Motorola Power Rectifier                 #        # 
#        #                         30 AMPERES                        #        #
#        #                          35 VOLTS                         #        #
#        #                                                           #        #
#        #               This model was developed by                 #        #
#        #                      Analogy, Inc.                        #        #
#        #                    9205 SW Gemini Dr.                     #        #
#        #                   Beaverton, OR  97005                    #        #
#        #               Copyright 1994 Analogy, Inc.                #        #
#        #                  All Rights Reserved                      #        #
#        #                                                           #        #
#        #    The content of this model is subject to change         #        #
#        #    without notice and may not be modified or altered      #        #
#        #    without permission from Motorola, Inc.  This model     #        #
#        #    has been carefully checked and is believed to be       #        #
#        #    accurate, however neither Analogy nor Motorola         #        #
#        #    assume liability for the use of this model or the      #        #
#        #    results obtained from using it.                        #        #
#        #                                                           #        #
#        #    For more information regarding modeling services,      #        #
#        #    model libraries or simulation products, please         #        #
#        #    call Analogy, Inc. (503) 626-9700.                     #        #
#        #                                                           #        #
#        #############################################################        #
#                                                                             #
#                                                                             #
#                                                                             #
###############################################################################
.model mbr2535ctl d
+ is= 1.37902e-05
+ rs= 0.00413455
+ n= 1.01936
+ tt= 1.04e-07
+ cjo= 3.40938e-09
+ vj= 0.500649
+ m= 0.471628
+ eg= 0.6
+ xti= 3.411
+ fc= 0.5
+ bv= 48
+ ibv= 0.01
+ kf= 0
+ af= 1
###############################################################################
#                                                                             #
#                                                                             #
#                                                                             #
#        #############################################################        #
#        #                                                           #        #
#        #                         mbr2545ct                         #        # 
#        #                                                           #        #
#        #                                                           #        #
#        #                  Motorola Power Rectifier                 #        # 
#        #                         30 AMPERES                        #        #
#        #                          45 VOLTS                         #        #
#        #                                                           #        #
#        #               This model was developed by                 #        #
#        #                      Analogy, Inc.                        #        #
#        #                    9205 SW Gemini Dr.                     #        #
#        #                   Beaverton, OR  97005                    #        #
#        #               Copyright 1994 Analogy, Inc.                #        #
#        #                  All Rights Reserved                      #        #
#        #                                                           #        #
#        #    The content of this model is subject to change         #        #
#        #    without notice and may not be modified or altered      #        #
#        #    without permission from Motorola, Inc.  This model     #        #
#        #    has been carefully checked and is believed to be       #        #
#        #    accurate, however neither Analogy nor Motorola         #        #
#        #    assume liability for the use of this model or the      #        #
#        #    results obtained from using it.                        #        #
#        #                                                           #        #
#        #    For more information regarding modeling services,      #        #
#        #    model libraries or simulation products, please         #        #
#        #    call Analogy, Inc. (503) 626-9700.                     #        #
#        #                                                           #        #
#        #############################################################        #
#                                                                             #
#                                                                             #
#                                                                             #
###############################################################################
.model mbr2545ct d
+ is= 3.80194e-06
+ rs= 0.00701321
+ n= 1.08441
+ tt= 1e-08
+ cjo= 2.20065e-09
+ vj= 0.510868
+ m= 0.467541
+ eg= 0.6
+ xti= 4.547
+ fc= 0.5
+ bv= 54
+ ibv= 0.01
+ kf= 0
+ af= 1
###############################################################################
#                                                                             #
#                                                                             #
#                                                                             #
#        #############################################################        #
#        #                                                           #        #
#        #                         mbr7030wtl                        #        # 
#        #                                                           #        #
#        #                                                           #        #
#        #                  Motorola Power Rectifier                 #        # 
#        #                         35 AMPERES                        #        #
#        #                          30 VOLTS                         #        #
#        #                                                           #        #
#        #               This model was developed by                 #        #
#        #                      Analogy, Inc.                        #        #
#        #                    9205 SW Gemini Dr.                     #        #
#        #                   Beaverton, OR  97005                    #        #
#        #               Copyright 1994 Analogy, Inc.                #        #
#        #                  All Rights Reserved                      #        #
#        #                                                           #        #
#        #    The content of this model is subject to change         #        #
#        #    without notice and may not be modified or altered      #        #
#        #    without permission from Motorola, Inc.  This model     #        #
#        #    has been carefully checked and is believed to be       #        #
#        #    accurate, however neither Analogy nor Motorola         #        #
#        #    assume liability for the use of this model or the      #        #
#        #    results obtained from using it.                        #        #
#        #                                                           #        #
#        #    For more information regarding modeling services,      #        #
#        #    model libraries or simulation products, please         #        #
#        #    call Analogy, Inc. (503) 626-9700.                     #        #
#        #                                                           #        #
#        #############################################################        #
#                                                                             #
#                                                                             #
#                                                                             #
###############################################################################
.model mbr7030wtl d
+ is= 1.648e-05
+ rs= 0.002772
+ n= 1.049
+ tt= 1e-09
+ cjo= 1.03088e-08
+ vj= 0.55876
+ m= 0.483724
+ eg= 0.6
+ xti= 5.411
+ fc= 0.5
+ bv= 44
+ ibv= 0.01
+ kf= 0
+ af= 1
###############################################################################
#                                                                             #
#                                                                             #
#                                                                             #
#        #############################################################        #
#        #                                                           #        #
#        #                        MBR10100                           #        # 
#        #                                                           #        #
#        #                                                           #        #
#        #                 Motorola Power Rectifier                  #        # 
#        #                       10 AMPERES                          #        #
#        #                       100 VOLTS                           #        #
#        #                                                           #        #
#        #               This model was developed by                 #        #
#        #                      Analogy, Inc.                        #        #
#        #                    9205 SW Gemini Dr.                     #        #
#        #                   Beaverton, OR  97005                    #        #
#        #               Copyright 1994 Analogy, Inc.                #        #
#        #                  All Rights Reserved                      #        #
#        #                                                           #        #
#        #    The content of this model is subject to change         #        #
#        #    without notice and may not be modified or altered      #        #
#        #    without permission from Motorola, Inc.  This model     #        #
#        #    has been carefully checked and is believed to be       #        #
#        #    accurate, however neither Analogy nor Motorola         #        #
#        #    assume liability for the use of this model or the      #        #
#        #    results obtained from using it.                        #        #
#        #                                                           #        #
#        #    For more information regarding modeling services,      #        #
#        #    model libraries or simulation products, please         #        #
#        #    call Analogy, Inc. (503) 626-9700.                     #        #
#        #                                                           #        #
#        #############################################################        #
#                                                                             #
#                                                                             #
#                                                                             #
###############################################################################
.model MBR10100 d
+ is= 1.567e-07
+ rs= 0.01853
+ n= 1.031
+ tt= 2e-08
+ cjo= 1.22e-09
+ vj= 0.5408
+ m= 0.4941
+ eg= 0.6
+ xti= 8
+ fc= 0.5
+ bv= 122
+ ibv= 0.001
+ kf= 0
+ af= 1
**************************************
*      Model Generated by MODPEX     *
*Copyright(c) Symmetry Design Systems*
*         All Rights Reserved        *
*    UNPUBLISHED LICENSED SOFTWARE   *
*   Contains Proprietary Information *
*      Which is The Property of      *
*     SYMMETRY OR ITS LICENSORS      *
*Commercial Use or Resale Restricted *
*   by Symmetry License Agreement    *
**************************************
* Model generated on Apr 10, 98
* MODEL FORMAT: PSpice
.MODEL mbr20100ct d
+IS=0.000210108 RS=0.0123882 N=2 EG=0.817576
+XTI=0.500001 BV=1000 IBV=0.0001 CJO=1e-11
+VJ=0.7 M=0.5 FC=0.5 TT=0
+KF=0 AF=1

**************************************
*      Model Generated by MODPEX     *
*Copyright(c) Symmetry Design Systems*
*         All Rights Reserved        *
*    UNPUBLISHED LICENSED SOFTWARE   *
*   Contains Proprietary Information *
*      Which is The Property of      *
*     SYMMETRY OR ITS LICENSORS      *
*Commercial Use or Resale Restricted *
*   by Symmetry License Agreement    *
**************************************
* Model generated on May 27, 98
* MODEL FORMAT: PSpice
.MODEL mbr20200ct d
+IS=2.13004e-07 RS=0.01 N=1.51125 EG=1.03726
+XTI=0.508834 BV=200 IBV=0.0001 CJO=8.07754e-10
+VJ=0.4 M=0.454959 FC=0.5 TT=1e-09
+KF=0 AF=1

###############################################################################
#                                                                             #
#                                                                             #
#                                                                             #
#        #############################################################        #
#        #                                                           #        #
#        #                        mbrb3030ct                         #        # 
#        #                                                           #        #
#        #                                                           #        #
#        #                  Motorola Power Rectifier                 #        # 
#        #                         30 AMPERES                        #        #
#        #                          30 VOLTS                         #        #
#        #                                                           #        #
#        #               This model was developed by                 #        #
#        #                      Analogy, Inc.                        #        #
#        #                    9205 SW Gemini Dr.                     #        #
#        #                   Beaverton, OR  97005                    #        #
#        #               Copyright 1994 Analogy, Inc.                #        #
#        #                  All Rights Reserved                      #        #
#        #                                                           #        #
#        #    The content of this model is subject to change         #        #
#        #    without notice and may not be modified or altered      #        #
#        #    without permission from Motorola, Inc.  This model     #        #
#        #    has been carefully checked and is believed to be       #        #
#        #    accurate, however neither Analogy nor Motorola         #        #
#        #    assume liability for the use of this model or the      #        #
#        #    results obtained from using it.                        #        #
#        #                                                           #        #
#        #    For more information regarding modeling services,      #        #
#        #    model libraries or simulation products, please         #        #
#        #    call Analogy, Inc. (503) 626-9700.                     #        #
#        #                                                           #        #
#        #############################################################        #
#                                                                             #
#                                                                             #
#                                                                             #
###############################################################################
.model mbrb3030ct d
+ is= 6.208e-06
+ rs= 0.003257
+ n= 1.035
+ tt= 1e-09
+ cjo= 4.44e-09
+ vj= 0.548
+ m= 0.4804
+ eg= 0.6
+ xti= 5
+ fc= 0.5
+ bv= 40
+ ibv= 0.01
+ kf= 0
+ af= 1
###############################################################################
#                                                                             #
#                                                                             #
#                                                                             #
#        #############################################################        #
#        #                                                           #        #
#        #                        mbrb3030ctl                        #        # 
#        #                                                           #        #
#        #                                                           #        #
#        #                  Motorola Power Rectifier                 #        # 
#        #                         30 AMPERES                        #        #
#        #                          30 VOLTS                         #        #
#        #                                                           #        #
#        #               This model was developed by                 #        #
#        #                      Analogy, Inc.                        #        #
#        #                    9205 SW Gemini Dr.                     #        #
#        #                   Beaverton, OR  97005                    #        #
#        #               Copyright 1994 Analogy, Inc.                #        #
#        #                  All Rights Reserved                      #        #
#        #                                                           #        #
#        #    The content of this model is subject to change         #        #
#        #    without notice and may not be modified or altered      #        #
#        #    without permission from Motorola, Inc.  This model     #        #
#        #    has been carefully checked and is believed to be       #        #
#        #    accurate, however neither Analogy nor Motorola         #        #
#        #    assume liability for the use of this model or the      #        #
#        #    results obtained from using it.                        #        #
#        #                                                           #        #
#        #    For more information regarding modeling services,      #        #
#        #    model libraries or simulation products, please         #        #
#        #    call Analogy, Inc. (503) 626-9700.                     #        #
#        #                                                           #        #
#        #############################################################        #
#                                                                             #
#                                                                             #
#                                                                             #
###############################################################################
.model mbrb3030ctl d
+ is= 1.783e-05
+ rs= 0.003214
+ n= 1.029
+ tt= 1e-09
+ cjo= 3.876e-09
+ vj= 0.4848
+ m= 0.4638
+ eg= 0.6
+ xti= 3.911
+ fc= 0.5
+ bv= 44
+ ibv= 0.01
+ kf= 0
+ af= 1
###############################################################################
#                                                                             #
#                                                                             #
#                                                                             #
#        #############################################################        #
#        #                                                           #        #
#        #                         mbrb4030                          #        # 
#        #                                                           #        #
#        #                                                           #        #
#        #                  Motorola Power Rectifier                 #        # 
#        #                         40 AMPERES                        #        #
#        #                          30 VOLTS                         #        #
#        #                                                           #        #
#        #               This model was developed by                 #        #
#        #                      Analogy, Inc.                        #        #
#        #                    9205 SW Gemini Dr.                     #        #
#        #                   Beaverton, OR  97005                    #        #
#        #               Copyright 1994 Analogy, Inc.                #        #
#        #                  All Rights Reserved                      #        #
#        #                                                           #        #
#        #    The content of this model is subject to change         #        #
#        #    without notice and may not be modified or altered      #        #
#        #    without permission from Motorola, Inc.  This model     #        #
#        #    has been carefully checked and is believed to be       #        #
#        #    accurate, however neither Analogy nor Motorola         #        #
#        #    assume liability for the use of this model or the      #        #
#        #    results obtained from using it.                        #        #