**************************************
*      Model Generated by MODPEX     *
*Copyright(c) Symmetry Design Systems*
*         All Rights Reserved        *
*    UNPUBLISHED LICENSED SOFTWARE   *
*   Contains Proprietary Information *
*      Which is The Property of      *
*     SYMMETRY OR ITS LICENSORS      *
*Commercial Use or Resale Restricted *
*   by Symmetry License Agreement    *
**************************************
* Model generated on Apr 28, 98
* MODEL FORMAT: PSpice
.MODEL 1sv229 d
+IS=1e-15 RS=1.17246 N=1.01249 EG=0.6
+XTI=2.99433 BV=1000 IBV=0.0001 CJO=2.83744e-11
+VJ=1.5 M=0.786549 FC=0.5 TT=1e-09
+KF=0 AF=1

**************************************
*      Model Generated by MODPEX     *
*Copyright(c) Symmetry Design Systems*
*         All Rights Reserved        *
*    UNPUBLISHED LICENSED SOFTWARE   *
*   Contains Proprietary Information *
*      Which is The Property of      *
*     SYMMETRY OR ITS LICENSORS      *
*Commercial Use or Resale Restricted *
*   by Symmetry License Agreement    *
**************************************
* Model generated on Jul 22, 98
* MODEL FORMAT: PSpice
.MODEL bav74lt1 d
+IS=7.85162e-09 RS=1.24107 N=1.93575 EG=1.1965
+XTI=0.5 BV=1000 IBV=0.0001 CJO=9.14173e-13
+VJ=2.14855 M=0.2 FC=0.5 TT=1e-09
+KF=0 AF=1

**************************************
*      Model Generated by MODPEX     *
*Copyright(c) Symmetry Design Systems*
*         All Rights Reserved        *
*    UNPUBLISHED LICENSED SOFTWARE   *
*   Contains Proprietary Information *
*      Which is The Property of      *
*     SYMMETRY OR ITS LICENSORS      *
*Commercial Use or Resale Restricted *
*   by Symmetry License Agreement    *
**************************************
* Model generated on Apr 14, 98
* MODEL FORMAT: PSpice
.MODEL bcx18 pnp
+IS=9.65227e-14 BF=298.722 NF=0.981783 VAF=10
+IKF=0.206045 ISE=1.73744e-14 NE=1.22618 BR=0.685852
+NR=1.0644 VAR=71.3281 IKR=1.19956 ISC=4.66149e-15
+NC=2.96765 RB=3.72293 IRB=0.1 RBM=0.1
+RE=0.00688669 RC=0.382166 XTB=0.736121 XTI=1.04767
+EG=1.05 CJE=1.9101e-10 VJE=0.99 MJE=0.422231
+TF=9.13006e-10 XTF=12.3731 VTF=1.65639 ITF=0.683922
+CJC=1.69402e-11 VJC=0.4 MJC=0.23 XCJC=0.89979
+FC=0.1 CJS=0 VJS=0.75 MJS=0.5
+TR=1e-07 PTF=0 KF=0 AF=1

**************************************
*      Model Generated by MODPEX     *
*Copyright(c) Symmetry Design Systems*
*         All Rights Reserved        *
*    UNPUBLISHED LICENSED SOFTWARE   *
*   Contains Proprietary Information *
*      Which is The Property of      *
*     SYMMETRY OR ITS LICENSORS      *
*Commercial Use or Resale Restricted *
*   by Symmetry License Agreement    *
**************************************
* Model generated on Mar  4, 98
* MODEL FORMAT: PSpice
.MODEL mmbd101lt1 d
+IS=1e-07 RS=2.51244 N=1.71158 EG=0.63401
+XTI=4 BV=1000 IBV=0.0001 CJO=9.20838e-13
+VJ=1.5 M=0.2 FC=0.5 TT=0
+KF=0 AF=1

**************************************
*      Model Generated by MODPEX     *
*Copyright(c) Symmetry Design Systems*
*         All Rights Reserved        *
*    UNPUBLISHED LICENSED SOFTWARE   *
*   Contains Proprietary Information *
*      Which is The Property of      *
*     SYMMETRY OR ITS LICENSORS      *
*Commercial Use or Resale Restricted *
*   by Symmetry License Agreement    *
**************************************
* Model generated on Jun 26, 98
* MODEL FORMAT: PSpice
.MODEL mmbd2838lt1 d
+IS=6.61604e-09 RS=1.00706 N=1.9439 EG=0.6
+XTI=0.5 BV=1000 IBV=0.0001 CJO=9.48972e-13
+VJ=1.5 M=0.2 FC=0.5 TT=1e-09
+KF=0 AF=1

**************************************
*      Model Generated by MODPEX     *
*Copyright(c) Symmetry Design Systems*
*         All Rights Reserved        *
*    UNPUBLISHED LICENSED SOFTWARE   *
*   Contains Proprietary Information *
*      Which is The Property of      *
*     SYMMETRY OR ITS LICENSORS      *
*Commercial Use or Resale Restricted *
*   by Symmetry License Agreement    *
**************************************
* Model generated on Apr  9, 98
* MODEL FORMAT: PSpice
.MODEL mmbd352lt1 d
+IS=1.65959e-08 RS=3.94417 N=1.45612 EG=0.735199
+XTI=0.530968 BV=1000 IBV=0.0001 CJO=9.20067e-13
+VJ=1.5 M=0.2 FC=0.5 TT=1e-09
+KF=0 AF=1

**************************************
*      Model Generated by MODPEX     *
*Copyright(c) Symmetry Design Systems*
*         All Rights Reserved        *
*    UNPUBLISHED LICENSED SOFTWARE   *
*   Contains Proprietary Information *
*      Which is The Property of      *
*     SYMMETRY OR ITS LICENSORS      *
*Commercial Use or Resale Restricted *
*   by Symmetry License Agreement    *
**************************************
* Model generated on Mar  5, 98
* MODEL FORMAT: PSpice
.MODEL mmbd353lt1 d
+IS=1e-07 RS=2.33522 N=1.70873 EG=0.622722
+XTI=4 BV=1000 IBV=0.0001 CJO=9.25287e-13
+VJ=1.5 M=0.2 FC=0.5 TT=1e-09
+KF=0 AF=1

**************************************
*      Model Generated by MODPEX     *
*Copyright(c) Symmetry Design Systems*
*         All Rights Reserved        *
*    UNPUBLISHED LICENSED SOFTWARE   *
*   Contains Proprietary Information *
*      Which is The Property of      *
*     SYMMETRY OR ITS LICENSORS      *
*Commercial Use or Resale Restricted *
*   by Symmetry License Agreement    *
**************************************
* Model generated on Jul 22, 98
* MODEL FORMAT: PSpice
.MODEL mmbd7000lt1 d
+IS=8.05798e-09 RS=0.399305 N=1.96798 EG=0.6
+XTI=0.5 BV=1000 IBV=0.0001 CJO=5.83133e-13
+VJ=10 M=0.2 FC=0.5 TT=1e-09
+KF=0 AF=1

**************************************
*      Model Generated by MODPEX     *
*Copyright(c) Symmetry Design Systems*
*         All Rights Reserved        *
*    UNPUBLISHED LICENSED SOFTWARE   *
*   Contains Proprietary Information *
*      Which is The Property of      *
*     SYMMETRY OR ITS LICENSORS      *
*Commercial Use or Resale Restricted *
*   by Symmetry License Agreement    *
**************************************
* Model generated on Mar 31, 98
* MODEL FORMAT: PSpice
.MODEL mmbf4393lt1 njf
+VTO=-1.36506 BETA=0.0190655 LAMBDA=0.0227922 RD=76.4299
+RS=38.7311 IS=1e-14 CGS=2.94972e-12 CGD=8.23801e-12
+PB=0.18649 FC=0.5 KF=1e-20 AF=0.2

**************************************
*      Model Generated by MODPEX     *
*Copyright(c) Symmetry Design Systems*
*         All Rights Reserved        *
*    UNPUBLISHED LICENSED SOFTWARE   *
*   Contains Proprietary Information *
*      Which is The Property of      *
*     SYMMETRY OR ITS LICENSORS      *
*Commercial Use or Resale Restricted *
*   by Symmetry License Agreement    *
**************************************
* Model generated on Jun  2, 98
* MODEL FORMAT: PSpice
.MODEL mmbf5484lt1 njf
+VTO=-1.44808 BETA=0.00111612 LAMBDA=0.052522 RD=92.0498
+RS=34.2404 IS=1e-14 CGS=2.34003e-11 CGD=1.9873e-12
+PB=2.68192 FC=0.5 KF=1e-20 AF=0.2

**************************************
*      Model Generated by MODPEX     *
*Copyright(c) Symmetry Design Systems*
*         All Rights Reserved        *
*    UNPUBLISHED LICENSED SOFTWARE   *
*   Contains Proprietary Information *
*      Which is The Property of      *
*     SYMMETRY OR ITS LICENSORS      *
*Commercial Use or Resale Restricted *
*   by Symmetry License Agreement    *
**************************************
* Model generated on Apr 14, 98
* MODEL FORMAT: PSpice
.MODEL mmbfj175lt1 pjf
+VTO=-4.25882 BETA=0.00388105 LAMBDA=0.00751457 RD=114.077
+RS=42.5978 IS=3.40344e-10 CGS=7.1608e-12 CGD=1.66048e-11
+PB=0.757866 FC=0.5 KF=1e-20 AF=0.2

**************************************
*      Model Generated by MODPEX     *
*Copyright(c) Symmetry Design Systems*
*         All Rights Reserved        *
*    UNPUBLISHED LICENSED SOFTWARE   *
*   Contains Proprietary Information *
*      Which is The Property of      *
*     SYMMETRY OR ITS LICENSORS      *
*Commercial Use or Resale Restricted *
*   by Symmetry License Agreement    *
**************************************
* Model generated on Apr 14, 98
* MODEL FORMAT: PSpice
.MODEL mmbfj309lt1 njf
+VTO=-1.7 BETA=0.0055601 LAMBDA=0.02184 RD=0.1
+RS=0.1 IS=1.3336e-12 CGS=5.07189e-12 CGD=5.35152e-12
+PB=2.41896 FC=0.5 KF=9.99982e-21 AF=0.200092

**************************************
*      Model Generated by MODPEX     *
*Copyright(c) Symmetry Design Systems*
*         All Rights Reserved        *
*    UNPUBLISHED LICENSED SOFTWARE   *
*   Contains Proprietary Information *
*      Which is The Property of      *
*     SYMMETRY OR ITS LICENSORS      *
*Commercial Use or Resale Restricted *
*   by Symmetry License Agreement    *
**************************************
* Model generated on Mar 23, 98
* MODEL FORMAT: PSpice
.MODEL mmbfu310 njf
+VTO=-3.5412 BETA=0.00331041 LAMBDA=0 RD=0
+RS=0 IS=1e-14 CGS=1.00001e-15 CGD=2.88244e-12
+PB=6.52969 FC=0.5 KF=9.99763e-21 AF=0.201081

**************************************
*      Model Generated by MODPEX     *
*Copyright(c) Symmetry Design Systems*
*         All Rights Reserved        *
*    UNPUBLISHED LICENSED SOFTWARE   *
*   Contains Proprietary Information *
*      Which is The Property of      *
*     SYMMETRY OR ITS LICENSORS      *
*Commercial Use or Resale Restricted *
*   by Symmetry License Agreement    *
**************************************
* Model generated on May  6, 98
* MODEL FORMAT: PSpice
.MODEL mmbt1010lt1 pnp
+IS=1.47121e-13 BF=376.631 NF=0.997006 VAF=33.2358
+IKF=0.688549 ISE=2.18047e-13 NE=1.80844 BR=1.74843
+NR=1.07122 VAR=41.8789 IKR=6.88549 ISC=2.18047e-13
+NC=2.97572 RB=18.7479 IRB=0.1 RBM=0.1
+RE=0.00035866 RC=0.445926 XTB=1.37943 XTI=2.05763
+EG=1.206 CJE=1.73788e-11 VJE=0.4 MJE=0.85
+TF=2.10778e-10 XTF=0.518592 VTF=8.51114 ITF=0.0106016
+CJC=2.39422e-11 VJC=0.4 MJC=0.364679 XCJC=0.9
+FC=0.738631 CJS=0 VJS=0.75 MJS=0.5
+TR=1e-07 PTF=0 KF=0 AF=1

**************************************
*      Model Generated by MODPEX     *
*Copyright(c) Symmetry Design Systems*
*         All Rights Reserved        *
*    UNPUBLISHED LICENSED SOFTWARE   *
*   Contains Proprietary Information *
*      Which is The Property of      *
*     SYMMETRY OR ITS LICENSORS      *
*Commercial Use or Resale Restricted *
*   by Symmetry License Agreement    *
**************************************
* Model generated on Apr  7, 98
* MODEL FORMAT: PSpice
.MODEL mmbt3904lt1 npn
+IS=7.11183e-14 BF=623.138 NF=1.08171 VAF=69.5734
+IKF=0.00963147 ISE=3.03185e-11 NE=2.15109 BR=0.110332
+NR=1.18876 VAR=105.037 IKR=0.0963147 ISC=1.0184e-13
+NC=1.99763 RB=5.77248 IRB=0.193107 RBM=5.77248
+RE=0.0001 RC=2.03533 XTB=0.1 XTI=2.74837
+EG=1.206 CJE=1e-13 VJE=0.976899 MJE=0.23
+TF=3.62047e-10 XTF=0.813416 VTF=7.64754 ITF=0.0112391
+CJC=3.72251e-12 VJC=0.4 MJC=0.232667 XCJC=0.8
+FC=0.21244 CJS=0 VJS=0.75 MJS=0.5
+TR=1e-07 PTF=0 KF=0 AF=1

**************************************
*      Model Generated by MODPEX     *
*Copyright(c) Symmetry Design Systems*
*         All Rights Reserved        *
*    UNPUBLISHED LICENSED SOFTWARE   *
*   Contains Proprietary Information *
*      Which is The Property of      *
*     SYMMETRY OR ITS LICENSORS      *
*Commercial Use or Resale Restricted *
*   by Symmetry License Agreement    *
**************************************
* Model generated on Apr  6, 98
* MODEL FORMAT: PSpice
.MODEL mmbt589lt1 pnp
+IS=2.98999e-14 BF=189.963 NF=0.900639 VAF=25.5754
+IKF=2.00915 ISE=6.40452e-12 NE=3.39975 BR=4.55276
+NR=0.92047 VAR=4.44253 IKR=8.59275 ISC=3.90005e-13
+NC=3.99 RB=9.45087 IRB=0.1 RBM=0.0999994
+RE=0.00101794 RC=0.253074 XTB=0.141011 XTI=1.05355
+EG=1.20601 CJE=7.83311e-12 VJE=0.652059 MJE=0.352563
+TF=2.97697e-10 XTF=1.00545 VTF=10.4621 ITF=0.00995909
+CJC=2.28715e-11 VJC=0.947981 MJC=0.23 XCJC=0.896875
+FC=0.500968 CJS=0 VJS=0.75 MJS=0.5
+TR=1e-07 PTF=0 KF=0 AF=1

.SUBCKT mmbta14lt1 1 2 3
**************************************
*      Model Generated by MODPEX     *
*Copyright(c) Symmetry Design Systems*
*         All Rights Reserved        *
*    UNPUBLISHED LICENSED SOFTWARE   *
*   Contains Proprietary Information *
*      Which is The Property of      *
*     SYMMETRY OR ITS LICENSORS      *
*Commercial Use or Resale Restricted *
*   by Symmetry License Agreement    *
**************************************
* Model generated on Apr 14, 98
* MODEL FORMAT: PSpice
* Darlington macro model
* External node designations
* Node 1 -> Collect
* Node 2 -> Base
* Node 3 -> Emitter
Q1 1 2 4 qmodel
Q2 1 4 3 q1model 124.167
D1 3 1 dmodel
* Default values used in dmodel
*   EG=1.11 TT=0 BV=infinite
.MODEL dmodel d
+IS=1e-12 RS=10.0224 N=1.00022 XTI=3.00022
+CJO=0 VJ=0.75 M=0.33 FC=0.5
.MODEL qmodel npn
+IS=2.68152e-13 BF=711.588 NF=1.16301 VAF=30
+IKF=0.00140481 ISE=1.50433e-12 NE=1.85694 BR=71.1588
+NR=1.00707 VAR=299.999 IKR=0.0140481 ISC=2.11553e-16
+NC=1.98392 RB=2.98293 IRB=0.201886 RBM=0.100669
+RE=0.062617 RC=1.20438 XTB=0 XTI=3.99023 EG=1.05
+CJE=1.31191e-11 VJE=0.95 MJE=0.380189 TF=1e-09
+XTF=1 VTF=0.6 ITF=1 CJC=1.50624e-11
+VJC=0.400258 MJC=0.358413 XCJC=0.900077 FC=0.5
+TR=1e-07 PTF=0 KF=0 AF=1
.MODEL q1model npn
+IS=2.68152e-13 BF=711.588 NF=1.16301 VAF=30
+IKF=0.00140481 ISE=1.50433e-12 NE=1.85694 BR=71.1588
+NR=1.00707 VAR=299.999 IKR=0.0140481 ISC=2.11553e-16
+NC=1.98392 RB=2.98293 IRB=0.201886 RBM=0.100669
+RE=0.062617 RC=1.20438 XTB=0 XTI=3.99023 EG=1.05
+CJE=1.31191e-11 VJE=0.95 MJE=0.380189 TF=1e-09
+XTF=1 VTF=0.6 ITF=1 CJC=0
+VJC=0.400258 MJC=0.358413 XCJC=0.900077 FC=0.5
+TR=1e-07 PTF=0 KF=0 AF=1
.ENDS mmbta14lt1
.SUBCKT mmbta63lt1 1 2 3
**************************************
*      Model Generated by MODPEX     *
*Copyright(c) Symmetry Design Systems*
*         All Rights Reserved        *
*    UNPUBLISHED LICENSED SOFTWARE   *
*   Contains Proprietary Information *
*      Which is The Property of      *
*     SYMMETRY OR ITS LICENSORS      *
*Commercial Use or Resale Restricted *
*   by Symmetry License Agreement    *
**************************************
* Model generated on Apr 14, 98
* MODEL FORMAT: PSpice
* Darlington macro model
* External node designations
* Node 1 -> Collect
* Node 2 -> Base
* Node 3 -> Emitter
Q1 1 2 4 qmodel
Q2 1 4 3 q1model 64.3815
D1 1 3 dmodel
* Default values used in dmodel
*   EG=1.11 TT=0 BV=infinite
.MODEL dmodel d
+IS=1e-12 RS=0 N=0.5 XTI=0.5
+CJO=0 VJ=0.75 M=0.33 FC=0.5
.MODEL qmodel pnp
+IS=1.26184e-14 BF=309.375 NF=1.06922 VAF=30
+IKF=0.00211028 ISE=2.71282e-14 NE=1.53483 BR=3.75284
+NR=0.958599 VAR=10 IKR=1e-05 ISC=2.71282e-14
+NC=4 RB=0.1 IRB=0.1 RBM=0.1
+RE=0.0001 RC=99.3883 XTB=1.00315 XTI=4 EG=1.206
+CJE=3e-12 VJE=0.75 MJE=0.33 TF=1e-11
+XTF=1 VTF=10 ITF=0.01 CJC=5e-12
+VJC=0.75 MJC=0.33 XCJC=0.9 FC=0.5
+TR=1e-07 PTF=0 KF=0 AF=1
.MODEL q1model pnp
+IS=1.26184e-14 BF=309.375 NF=1.06922 VAF=30
+IKF=0.00211028 ISE=2.71282e-14 NE=1.53483 BR=3.75284
+NR=0.958599 VAR=10 IKR=1e-05 ISC=2.71282e-14
+NC=4 RB=0.1 IRB=0.1 RBM=0.1
+RE=0.0001 RC=99.3883 XTB=1.00315 XTI=4 EG=1.206
+CJE=3e-12 VJE=0.75 MJE=0.33 TF=1e-11
+XTF=1 VTF=10 ITF=0.01 CJC=0
+VJC=0.75 MJC=0.33 XCJC=0.9 FC=0.5
+TR=1e-07 PTF=0 KF=0 AF=1
.ENDS mmbta63lt1
**************************************
*      Model Generated by MODPEX     *
*Copyright(c) Symmetry Design Systems*
*         All Rights Reserved        *
*    UNPUBLISHED LICENSED SOFTWARE   *
*   Contains Proprietary Information *
*      Which is The Property of      *
*     SYMMETRY OR ITS LICENSORS      *
*Commercial Use or Resale Restricted *
*   by Symmetry License Agreement    *
**************************************
* Model generated on May 14, 98
* MODEL FORMAT: PSpice
.MODEL mmbth10lt1 npn
+IS=3.2868e-14 BF=75.328 NF=1.17427 VAF=10
+IKF=0.262558 ISE=1e-16 NE=1.14992 BR=0.162338
+NR=1.5 VAR=100 IKR=2.62558 ISC=1e-16
+NC=1.05387 RB=0.1 IRB=2.37339 RBM=0.1
+RE=0.0001 RC=9.5364 XTB=0.1 XTI=1
+EG=1.05 CJE=1.12827e-11 VJE=0.65 MJE=0.35
+TF=4e-10 XTF=1.5 VTF=1 ITF=1
+CJC=1.65813e-12 VJC=0.95 MJC=0.23 XCJC=0.8
+FC=0.533333 CJS=0 VJS=0.75 MJS=0.5
+TR=1e-07 PTF=0 KF=0 AF=1

**************************************
*      Model Generated by MODPEX     *
*Copyright(c) Symmetry Design Systems*
*         All Rights Reserved        *
*    UNPUBLISHED LICENSED SOFTWARE   *
*   Contains Proprietary Information *
*      Which is The Property of      *
*     SYMMETRY OR ITS LICENSORS      *
*Commercial Use or Resale Restricted *
*   by Symmetry License Agreement    *
**************************************
* Model generated on Jun  2, 98
* MODEL FORMAT: PSpice
.MODEL mmbv3401lt1 d
+IS=1.20183e-19 RS=0.01 N=0.804498 EG=1.3
+XTI=3.02957 BV=35 IBV=0.0001 CJO=2.42431e-12
+VJ=0.4 M=0.328674 FC=0.5 TT=1e-09
+KF=0 AF=1

.SUBCKT mpsw45 1 2 3
**************************************
*      Model Generated by MODPEX     *
*Copyright(c) Symmetry Design Systems*
*         All Rights Reserved        *
*    UNPUBLISHED LICENSED SOFTWARE   *
*   Contains Proprietary Information *
*      Which is The Property of      *
*     SYMMETRY OR ITS LICENSORS      *
*Commercial Use or Resale Restricted *
*   by Symmetry License Agreement    *
**************************************
* Model generated on Apr 14, 98
* MODEL FORMAT: PSpice
* Darlington macro model
* External node designations
* Node 1 -> Collect
* Node 2 -> Base
* Node 3 -> Emitter
Q1 1 2 4 qmodel
Q2 1 4 3 q1model 4.0573
D1 3 1 dmodel
* Default values used in dmodel
*   EG=1.11 TT=0 BV=infinite
.MODEL dmodel d
+IS=1e-12 RS=10 N=1 XTI=3
+CJO=0 VJ=0.75 M=0.33 FC=0.5
.MODEL qmodel npn
+IS=1.0035e-12 BF=377.195 NF=1.15276 VAF=107.442
+IKF=0.0515222 ISE=1.49147e-11 NE=2.13322 BR=5.03586
+NR=1.11644 VAR=117.493 IKR=0.0999644 ISC=9.49798e-14
+NC=2.12847 RB=13.4767 IRB=0.20768 RBM=10.084
+RE=0.15954 RC=0.797702 XTB=1.69624 XTI=1 EG=1.05
+CJE=1.62439e-11 VJE=0.95 MJE=0.43803 TF=1e-09
+XTF=100 VTF=10 ITF=1 CJC=1.51284e-11
+VJC=0.4 MJC=0.356798 XCJC=0.9 FC=0.5
+TR=7e-06 PTF=0 KF=0 AF=1
.MODEL q1model npn
+IS=1.0035e-12 BF=377.195 NF=1.15276 VAF=107.442
+IKF=0.0515222 ISE=1.49147e-11 NE=2.13322 BR=5.03586
+NR=1.11644 VAR=117.493 IKR=0.0999644 ISC=9.49798e-14
+NC=2.12847 RB=13.4767 IRB=0.20768 RBM=10.084
+RE=0.15954 RC=0.797702 XTB=1.69624 XTI=1 EG=1.05
+CJE=1.62439e-11 VJE=0.95 MJE=0.43803 TF=1e-09
+XTF=100 VTF=10 ITF=1 CJC=0
+VJC=0.4 MJC=0.356798 XCJC=0.9 FC=0.5
+TR=7e-06 PTF=0 KF=0 AF=1
.ENDS mpsw45
.SUBCKT mun2211t1 1 2 3 
**************************************
*      Model Generated by MODPEX     *
*Copyright(c) Symmetry Design Systems*
*         All Rights Reserved        *
*    UNPUBLISHED LICENSED SOFTWARE   *
*   Contains Proprietary Information *
*      Which is The Property of      *
*     SYMMETRY OR ITS LICENSORS      *
*Commercial Use or Resale Restricted *
*   by Symmetry License Agreement    *
**************************************
* MODEL FORMAT: PSpice
* BRT macro model
* External node 
* Node 1 -> BRT_C
* Node 2 -> BRT_B
* Node 3 -> BRT_E
QOUT 1 4 3 qmodel
R1   2 4 10000
R2   4 3 10000
.MODEL qmodel npn
+IS=2.01167e-13 BF=503.377 NF=0.85 VAF=10
+IKF=0.0915009 ISE=8.83804e-12 NE=1.33482 BR=2.92823
+NR=0.898336 VAR=80.8353 IKR=0.123407 ISC=1.00169e-13
+NC=1.98959 RB=9.68402 IRB=0.2 RBM=0.968402
+RE=0.112785 RC=1.62062 XTB=4.11585 XTI=3.59557 EG=1.05
+CJE=9.19329e-12 VJE=0.749602 MJE=0.330436 TF=1e-09
+XTF=1 VTF=10 ITF=0.01 CJC=6.14314e-12
+VJC=0.95 MJC=0.477288 XCJC=0.9 FC=0.5
.ENDS
.SUBCKT mun2212t1 1 2 3 
**************************************
*      Model Generated by MODPEX     *
*Copyright(c) Symmetry Design Systems*
*         All Rights Reserved        *
*    UNPUBLISHED LICENSED SOFTWARE   *
*   Contains Proprietary Information *
*      Which is The Property of      *
*     SYMMETRY OR ITS LICENSORS      *
*Commercial Use or Resale Restricted *
*   by Symmetry License Agreement    *
**************************************
* MODEL FORMAT: PSpice
* BRT macro model
* External node 
* Node 1 -> BRT_C
* Node 2 -> BRT_B
* Node 3 -> BRT_E
QOUT 1 4 3 qmodel
R1   2 4 22000
R2   4 3 22000
.MODEL qmodel npn
+IS=8.35009e-15 BF=320.598 NF=0.85 VAF=81.3391
+IKF=0.470407 ISE=8.73494e-13 NE=2.28791 BR=2.58274
+NR=0.90123 VAR=67.0486 IKR=0.0880718 ISC=9.98221e-14
+NC=1.99249 RB=9.95062 IRB=0.184263 RBM=9.95062
+RE=0.344931 RC=2.08459 XTB=4.742 XTI=2.66746 EG=1.05
+CJE=3.05462e-13 VJE=0.746032 MJE=0.334339 TF=2e-09
+XTF=350 VTF=0.16 ITF=1 CJC=3.18971e-12
+VJC=0.95 MJC=0.23 XCJC=0.9 FC=0.5
.ENDS
.SUBCKT mun2213t1 1 2 3 
**************************************
*      Model Generated by MODPEX     *
*Copyright(c) Symmetry Design Systems*
*         All Rights Reserved        *
*    UNPUBLISHED LICENSED SOFTWARE   *
*   Contains Proprietary Information *
*      Which is The Property of      *
*     SYMMETRY OR ITS LICENSORS      *
*Commercial Use or Resale Restricted *
*   by Symmetry License Agreement    *
**************************************
* MODEL FORMAT: PSpice
* BRT macro model
* External node 
* Node 1 -> BRT_C
* Node 2 -> BRT_B
* Node 3 -> BRT_E
QOUT 1 4 3 qmodel
R1   2 4 47000
R2   4 3 45000
.MODEL qmodel npn
+IS=1.09641e-14 BF=484.877 NF=0.850054 VAF=157.672
+IKF=0.100104 ISE=6.39672e-13 NE=1.36212 BR=0.469802
+NR=0.952397 VAR=110.122 IKR=0.0777143 ISC=9.97391e-14
+NC=2.01286 RB=9.94469 IRB=0.200112 RBM=9.94469
+RE=0.000100004 RC=2.94284 XTB=6.66612 XTI=3.09996 EG=1.206
+CJE=1e-13 VJE=0.747518 MJE=0.332683 TF=1e-09
+XTF=500 VTF=0.5 ITF=0.4 CJC=1.66644e-12
+VJC=0.95 MJC=0.478773 XCJC=0.9 FC=0.5
.ENDS
.SUBCKT mun2214t1 1 2 3 
**************************************
*      Model Generated by MODPEX     *
*Copyright(c) Symmetry Design Systems*
*         All Rights Reserved        *
*    UNPUBLISHED LICENSED SOFTWARE   *
*   Contains Proprietary Information *
*      Which is The Property of      *
*     SYMMETRY OR ITS LICENSORS      *
*Commercial Use or Resale Restricted *
*   by Symmetry License Agreement    *
**************************************
* MODEL FORMAT: PSpice
* BRT macro model
* External node 
* Node 1 -> BRT_C
* Node 2 -> BRT_B
* Node 3 -> BRT_E
QOUT 1 4 3 qmodel
R1   2 4 10000
R2   4 3 47000
.MODEL qmodel npn
+IS=3.66399e-14 BF=254.939 NF=0.85 VAF=95.7753
+IKF=0.357721 ISE=1.49055e-12 NE=1.49693 BR=1.02623
+NR=0.896586 VAR=97.8174 IKR=0.0997037 ISC=9.9998e-14
+NC=1.99917 RB=9.97674 IRB=0.19916 RBM=0.997157
+RE=0.0981867 RC=0.9896 XTB=0.374921 XTI=2.99928 EG=1.11358
+CJE=5.36058e-12 VJE=0.747939 MJE=0.332252 TF=1e-09
+XTF=1 VTF=10 ITF=0.01 CJC=4.78888e-12
+VJC=0.688331 MJC=0.23 XCJC=0.9 FC=0.5
.ENDS
.SUBCKT mun5111t1 1 2 3 
**************************************
*      Model Generated by MODPEX     *
*Copyright(c) Symmetry Design Systems*
*         All Rights Reserved        *
*    UNPUBLISHED LICENSED SOFTWARE   *
*   Contains Proprietary Information *
*      Which is The Property of      *
*     SYMMETRY OR ITS LICENSORS      *
*Commercial Use or Resale Restricted *
*   by Symmetry License Agreement    *
**************************************
* MODEL FORMAT: PSpice
* BRT macro model
* External node 
* Node 1 -> BRT_C
* Node 2 -> BRT_B
* Node 3 -> BRT_E
QOUT 1 4 3 qmodel
R1   2 4 10000
R2   4 3 10000
.MODEL qmodel pnp
+IS=8.21265e-14 BF=232.819 NF=0.85 VAF=95.1876
+IKF=0.115394 ISE=2.59275e-12 NE=1.35437 BR=0.981237
+NR=0.896623 VAR=100.676 IKR=0.099968 ISC=1e-13
+NC=1.99999 RB=9.99618 IRB=0.2 RBM=0.999618
+RE=0.0963173 RC=1.10266 XTB=0.49613 XTI=2.9993 EG=1.08297
+CJE=5.27059e-12 VJE=0.74778 MJE=0.332426 TF=1e-09
+XTF=1 VTF=10 ITF=0.01 CJC=3.64127e-12
+VJC=0.95 MJC=0.23 XCJC=0.9 FC=0.5
.ENDS
.SUBCKT mun5112t1 1 2 3 
**************************************
*      Model Generated by MODPEX     *
*Copyright(c) Symmetry Design Systems*
*         All Rights Reserved        *
*    UNPUBLISHED LICENSED SOFTWARE   *
*   Contains Proprietary Information *
*      Which is The Property of      *
*     SYMMETRY OR ITS LICENSORS      *
*Commercial Use or Resale Restricted *
*   by Symmetry License Agreement    *
**************************************
* MODEL FORMAT: PSpice
* BRT macro model
* External node 
* Node 1 -> BRT_C
* Node 2 -> BRT_B
* Node 3 -> BRT_E
QOUT 1 4 3 qmodel
R1   2 4 22000
R2   4 3 27500
.MODEL qmodel pnp
+IS=7.52412e-13 BF=294.068 NF=0.940182 VAF=10
+IKF=1.23151 ISE=3.93592e-13 NE=1.17139 BR=3.25063
+NR=0.971641 VAR=1.96114 IKR=0.070407 ISC=9.94363e-14
+NC=2.01979 RB=9.59939 IRB=0.199781 RBM=9.59939
+RE=4.10603 RC=0.001 XTB=3.06104 XTI=2.78463 EG=1.05
+CJE=1.90007e-12 VJE=0.670286 MJE=0.41697 TF=2e-09
+XTF=400 VTF=0.5 ITF=0.1 CJC=3.90479e-12
+VJC=0.82912 MJC=0.23 XCJC=0.9 FC=0.5
.ENDS
.SUBCKT mun5113t1 1 2 3 
**************************************
*      Model Generated by MODPEX     *
*Copyright(c) Symmetry Design Systems*
*         All Rights Reserved        *
*    UNPUBLISHED LICENSED SOFTWARE   *
*   Contains Proprietary Information *
*      Which is The Property of      *
*     SYMMETRY OR ITS LICENSORS      *
*Commercial Use or Resale Restricted *
*   by Symmetry License Agreement    *
**************************************
* MODEL FORMAT: PSpice
* BRT macro model
* External node 
* Node 1 -> BRT_C
* Node 2 -> BRT_B
* Node 3 -> BRT_E
QOUT 1 4 3 qmodel
R1   2 4 47000
R2   4 3 47000
.MODEL qmodel pnp
+IS=7.25784e-14 BF=210.397 NF=1.25109 VAF=10
+IKF=0.106023 ISE=5.9242e-13 NE=1.87351 BR=2.53397
+NR=1.31523 VAR=63.2989 IKR=0.0907684 ISC=1.00165e-13
+NC=1.99207 RB=10.1514 IRB=0.2 RBM=10
+RE=0.202038 RC=4.29775 XTB=0.529634 XTI=3.02215 EG=1.206
+CJE=9.66401e-12 VJE=0.700061 MJE=0.38572 TF=1e-09
+XTF=1 VTF=10 ITF=0.01 CJC=2.68082e-12
+VJC=0.4 MJC=0.500192 XCJC=0.9 FC=0.5
.ENDS
.SUBCKT mun5114t1 1 2 3 
**************************************
*      Model Generated by MODPEX     *
*Copyright(c) Symmetry Design Systems*
*         All Rights Reserved        *
*    UNPUBLISHED LICENSED SOFTWARE   *
*   Contains Proprietary Information *
*      Which is The Property of      *
*     SYMMETRY OR ITS LICENSORS      *
*Commercial Use or Resale Restricted *
*   by Symmetry License Agreement    *
**************************************
* MODEL FORMAT: PSpice
* BRT macro model
* External node 
* Node 1 -> BRT_C
* Node 2 -> BRT_B
* Node 3 -> BRT_E
QOUT 1 4 3 qmodel
R1   2 4 10000
R2   4 3 47000
.MODEL qmodel pnp
+IS=8.68249e-14 BF=274.736 NF=0.85 VAF=10
+IKF=0.0276657 ISE=1.27069e-12 NE=1.23123 BR=1.99086
+NR=0.902019 VAR=99.4017 IKR=0.449769 ISC=1.00031e-13
+NC=1.99875 RB=10.2469 IRB=0.2 RBM=10
+RE=0.0001 RC=2.66045 XTB=4.58636 XTI=3.0825 EG=1.206
+CJE=6.48872e-12 VJE=0.74824 MJE=0.331926 TF=1e-09
+XTF=40 VTF=0.5 ITF=0.1 CJC=4.70603e-12
+VJC=0.48538 MJC=0.23 XCJC=0.9 FC=0.5
.ENDS
.SUBCKT mun5211t1 1 2 3 
**************************************
*      Model Generated by MODPEX     *
*Copyright(c) Symmetry Design Systems*
*         All Rights Reserved        *
*    UNPUBLISHED LICENSED SOFTWARE   *
*   Contains Proprietary Information *
*      Which is The Property of      *
*     SYMMETRY OR ITS LICENSORS      *
*Commercial Use or Resale Restricted *
*   by Symmetry License Agreement    *
**************************************
* MODEL FORMAT: PSpice
* BRT macro model
* External node 
* Node 1 -> BRT_C
* Node 2 -> BRT_B
* Node 3 -> BRT_E
QOUT 1 4 3 qmodel
R1   2 4 10000
R2   4 3 10000
.MODEL qmodel npn
+IS=6.88e-15 BF=315.95 NF=0.942048 VAF=13.7355
+IKF=0.442191 ISE=7.38494e-13 NE=1.54602 BR=3.61799
+NR=1.01473 VAR=101.76 IKR=0.511049 ISC=1.1116e-13
+NC=1.9895 RB=9.95151 IRB=0.2 RBM=0.995203
+RE=0.0001 RC=3.39301 XTB=3.49591 XTI=2.64436 EG=1.05
+CJE=6.44434e-12 VJE=0.748341 MJE=0.331813 TF=1e-09
+XTF=1 VTF=10 ITF=0.1 CJC=4.20132e-12
+VJC=0.95 MJC=0.372002 XCJC=0.9 FC=0.5
.ENDS
.SUBCKT mun5212t1 1 2 3 
**************************************
*      Model Generated by MODPEX     *
*Copyright(c) Symmetry Design Systems*
*         All Rights Reserved        *
*    UNPUBLISHED LICENSED SOFTWARE   *
*   Contains Proprietary Information *
*      Which is The Property of      *
*     SYMMETRY OR ITS LICENSORS      *
*Commercial Use or Resale Restricted *
*   by Symmetry License Agreement    *
**************************************
* MODEL FORMAT: PSpice
* BRT macro model
* External node 
* Node 1 -> BRT_C
* Node 2 -> BRT_B
* Node 3 -> BRT_E
QOUT 1 4 3 qmodel
R1   2 4 22000
R2   4 3 22000
.MODEL qmodel npn
+IS=9.25682e-14 BF=479.491 NF=1.28137 VAF=27.3699
+IKF=0.206472 ISE=9.0144e-13 NE=2.00402 BR=1.08294
+NR=1.36872 VAR=103.636 IKR=0.0993729 ISC=9.99928e-14
+NC=2.00058 RB=9.98173 IRB=0.2 RBM=0.998173
+RE=0.113633 RC=1.57343 XTB=0.461494 XTI=3.00087 EG=1.14381
+CJE=4.96938e-12 VJE=0.747482 MJE=0.332755 TF=1e-09
+XTF=1 VTF=10 ITF=0.01 CJC=4.50951e-12
+VJC=0.664496 MJC=0.293517 XCJC=0.9 FC=0.5
.ENDS
.SUBCKT mun5213t1 1 2 3 
**************************************
*      Model Generated by MODPEX     *
*Copyright(c) Symmetry Design Systems*
*         All Rights Reserved        *
*    UNPUBLISHED LICENSED SOFTWARE   *
*   Contains Proprietary Information *
*      Which is The Property of      *
*     SYMMETRY OR ITS LICENSORS      *
*Commercial Use or Resale Restricted *
*   by Symmetry License Agreement    *
**************************************
* MODEL FORMAT: PSpice
* BRT macro model
* External node 
* Node 1 -> BRT_C
* Node 2 -> BRT_B
* Node 3 -> BRT_E
QOUT 1 4 3 qmodel
R1   2 4 47000
R2   4 3 47000
.MODEL qmodel npn
+IS=1.34841e-14 BF=380.835 NF=0.85 VAF=288.792
+IKF=0.120599 ISE=6.78053e-12 NE=1.60377 BR=4.16566
+NR=0.794455 VAR=105.58 IKR=0.00494523 ISC=9.9128e-14
+NC=1.99857 RB=9.35749 IRB=0.2 RBM=9.35749
+RE=0.000102655 RC=1.63286 XTB=2.82136 XTI=3.99998 EG=1.20508
+CJE=5.28202e-12 VJE=0.752363 MJE=0.327511 TF=1e-09
+XTF=1 VTF=10 ITF=0.01 CJC=1.92341e-12
+VJC=0.95 MJC=0.503284 XCJC=0.9 FC=0.5
.ENDS
.SUBCKT mun5214t1 1 2 3 
**************************************
*      Model Generated by MODPEX     *
*Copyright(c) Symmetry Design Systems*
*         All Rights Reserved        *
*    UNPUBLISHED LICENSED SOFTWARE   *
*   Contains Proprietary Information *
*      Which is The Property of      *
*     SYMMETRY OR ITS LICENSORS      *
*Commercial Use or Resale Restricted *
*   by Symmetry License Agreement    *
**************************************
* MODEL FORMAT: PSpice
* BRT macro model
* External node 
* Node 1 -> BRT_C
* Node 2 -> BRT_B
* Node 3 -> BRT_E
QOUT 1 4 3 qmodel
R1   2 4 10000
R2   4 3 47000
.MODEL qmodel npn
+IS=8.16043e-14 BF=162.891 NF=0.894525 VAF=34.5218
+IKF=0.120022 ISE=9.25019e-13 NE=1.8984 BR=6.62443
+NR=0.909239 VAR=99.0155 IKR=0.158468 ISC=9.96844e-14