**********
* Copyright Intusoft 1992-1997
* All Rights Reserved
**********
*********
Magnetic Core Library Contents:
      
TABLE OF DEFINES FOR THE FOLLOWING CORES:
COREX----Siemens, N30
COREY----Magnetics Tape Wound PERMALLOY 80
COREZ----Magnetics Tape Wound ORTHONOL
COREW----Ferroxcube FERRITE, 3C8 CORE
GENALEX G29ASH
GENALEX L2 Ferrite Cores
GENALEX T3 Ferrite Cores
TELMAG 'C' Cores 0.3mm type
TELMAG 'C' Cores 0.1mm type
TELMAG 'C' Cores 0.05mm type
TURNS----TURNS FOR A TRANSFORMER  
**********
* PERMALLOY COREY M80525 
**********
*SRC=M80525_1/8DMA;M80525_1/8DMA;Magnetic Cores;Permalloy Tape Wound 80;
*SYM=COREY
.SUBCKT M80525_1/8DMA 1 2 3
X1 1 2 3 COREY {BR=6K UMAX=180K USAT=10K BI=0 N=1 ACORE=.016 LPATH=4.4 FEDDY=600K} 
.ENDS
*INCLUDE MAGNETIC.LIB
**********
*SRC=M80525_1/4DMA;M80525_1/4DMA;Magnetic Cores;Permalloy Tape Wound 80;
*SYM=COREY
.SUBCKT M80525_1/4DMA 1 2 3
X1 1 2 3 COREY {BR=6K UMAX=180K USAT=10K BI=0 N=1 ACORE=.0265 LPATH=4.4 FEDDY=300K} 
.ENDS
*INCLUDE MAGNETIC.LIB
**********
*SRC=M80525_1/2DMA;M80525_1/2DMA;Magnetic Cores;Permalloy Tape Wound 80;
*SYM=COREY
.SUBCKT M80525_1/2DMA 1 2 3
X1 1 2 3 COREY {BR=6K UMAX=180K USAT=10K BI=0 N=1 ACORE=.042 LPATH=4.4 FEDDY=150K} 
.ENDS
*INCLUDE MAGNETIC.LIB
**********
*SRC=M80525_1DMA;M80525_1DMA;Magnetic Cores;Permalloy Tape Wound 80;
*SYM=COREY
.SUBCKT M80525_1DMA 1 2 3
X1 1 2 3 COREY {BR=6K UMAX=180K USAT=10K BI=0 N=1 ACORE=.053 LPATH=4.4 FEDDY=75K} 
.ENDS
*INCLUDE MAGNETIC.LIB
**********
*ORTHONOL COREZ M80525
**********
*SRC=M80525_1/8AMA;M80525_1/8AMA;Magnetic Cores;Orthonol Tape Wound;
*SYM=COREZ
.SUBCKT M80525_1/8AMA 1 2 3
X1 1 2 3 COREZ {BR=14K UMAX=75K USAT=2K BI=0 N=1 ACORE=.016 LPATH=4.4 FEDDY=600K} 
.ENDS
*INCLUDE MAGNETIC.LIB
**********
*SRC=M80525_1/4AMA;M80525_1/4AMA;Magnetic Cores;Orthonol Tape Wound;
*SYM=COREZ
.SUBCKT M80525_1/4AMA 1 2 3
X1 1 2 3 COREZ {BR=14K UMAX=75K USAT=2K BI=0 N=1 ACORE=.0265 LPATH=4.4 FEDDY=300K} 
.ENDS
*INCLUDE MAGNETIC.LIB
**********
*SRC=M80525_1/2AMA;M80525_1/2AMA;Magnetic Cores;Orthonol Tape Wound;
*SYM=COREZ
.SUBCKT M80525_1/2AMA 1 2 3
X1 1 2 3 COREZ {BR=14K UMAX=75K USAT=2K BI=0 N=1 ACORE=.042 LPATH=4.4 FEDDY=150K} 
.ENDS
*INCLUDE MAGNETIC.LIB
**********
*SRC=M80525_1AMA;M80525_1AMA;Magnetic Cores;Orthonol Tape Wound;
*SYM=COREZ
.SUBCKT M80525_1AMA 1 2 3
X1 1 2 3 COREZ {BR=14K UMAX=75K USAT=2K BI=0 N=1 ACORE=.053 LPATH=4.4 FEDDY=75K} 
.ENDS
*INCLUDE MAGNETIC.LIB
**********
* PERMALLOY COREY M80619 
**********
*SRC=M80619_1/8DMA;M80619_1/8DMA;Magnetic Cores;Permalloy Tape Wound 80;
*SYM=COREY
.SUBCKT M80619_1/8DMA 1 2 3
X1 1 2 3 COREY {BR=6K UMAX=180K USAT=10K BI=0 N=1 ACORE=.016 LPATH=3.9 FEDDY=600K} 
.ENDS
*INCLUDE MAGNETIC.LIB
**********
*SRC=M80619_1/4DMA;M80619_1/4DMA;Magnetic Cores;Permalloy Tape Wound 80;
*SYM=COREY
.SUBCKT M80619_1/4DMA 1 2 3
X1 1 2 3 COREY {BR=6K UMAX=180K USAT=10K BI=0 N=1 ACORE=.0265 LPATH=3.9 FEDDY=300K} 
.ENDS
*INCLUDE MAGNETIC.LIB
**********
*SRC=M80619_1/2DMA;M80619_1/2DMA;Magnetic Cores;Permalloy Tape Wound 80;
*SYM=COREY
.SUBCKT M80619_1/2DMA 1 2 3
X1 1 2 3 COREY {BR=6K UMAX=180K USAT=10K BI=0 N=1 ACORE=.042 LPATH=3.9 FEDDY=150K} 
.ENDS
*INCLUDE MAGNETIC.LIB
**********
*SRC=M80619_1DMA;M80619_1DMA;Magnetic Cores;Permalloy Tape Wound 80;
*SYM=COREY
.SUBCKT M80619_1DMA 1 2 3
X1 1 2 3 COREY {BR=6K UMAX=180K USAT=10K BI=0 N=1 ACORE=.053 LPATH=3.9 FEDDY=75K} 
.ENDS
*INCLUDE MAGNETIC.LIB
**********
*ORTHONOL COREZ M80619
**********
*SRC=M80619_1/8AMA;M80619_1/8AMA;Magnetic Cores;Orthonol Tape Wound;
*SYM=COREZ
.SUBCKT M80619_1/8AMA 1 2 3
X1 1 2 3 COREZ {BR=14K UMAX=75K USAT=2K BI=0 N=1 ACORE=.016 LPATH=3.9 FEDDY=600K} 
.ENDS
*INCLUDE MAGNETIC.LIB
**********
*SRC=M80619_1/4AMA;M80619_1/4AMA;Magnetic Cores;Orthonol Tape Wound;
*SYM=COREZ
.SUBCKT M80619_1/4AMA 1 2 3
X1 1 2 3 COREZ {BR=14K UMAX=75K USAT=2K BI=0 N=1 ACORE=.0265 LPATH=3.9 FEDDY=300K} 
.ENDS
*INCLUDE MAGNETIC.LIB
**********
*SRC=M80619_1/2AMA;M80619_1/2AMA;Magnetic Cores;Orthonol Tape Wound;
*SYM=COREZ
.SUBCKT M80619_1/2AMA 1 2 3
X1 1 2 3 COREZ {BR=14K UMAX=75K USAT=2K BI=0 N=1 ACORE=.042 LPATH=3.9 FEDDY=150K} 
.ENDS
*INCLUDE MAGNETIC.LIB
**********
*SRC=M80619_1AMA;M80619_1AMA;Magnetic Cores;Orthonol Tape Wound;
*SYM=COREZ
.SUBCKT M80619_1AMA 1 2 3
X1 1 2 3 COREZ {BR=14K UMAX=75K USAT=2K BI=0 N=1 ACORE=.053 LPATH=3.9 FEDDY=75K} 
.ENDS
*INCLUDE MAGNETIC.LIB
**********
* PERMALLOY COREY M80618 
**********
*SRC=M80618_1/8DMA;M80618_1/8DMA;Magnetic Cores;Permalloy Tape Wound 80;
*SYM=COREY
.SUBCKT M80618_1/8DMA 1 2 3
X1 1 2 3 COREY {BR=6K UMAX=180K USAT=10K BI=0 N=1 ACORE=.016 LPATH=3.4 FEDDY=600K} 
.ENDS
*INCLUDE MAGNETIC.LIB
**********
*SRC=M80618_1/4DMA;M80618_1/4DMA;Magnetic Cores;Permalloy Tape Wound 80;
*SYM=COREY
.SUBCKT M80618_1/4DMA 1 2 3
X1 1 2 3 COREY {BR=6K UMAX=180K USAT=10K BI=0 N=1 ACORE=.0265 LPATH=3.4 FEDDY=300K} 
.ENDS
*INCLUDE MAGNETIC.LIB
**********
*SRC=M80618_1/2DMA;M80618_1/2DMA;Magnetic Cores;Permalloy Tape Wound 80;
*SYM=COREY
.SUBCKT M80618_1/2DMA 1 2 3
X1 1 2 3 COREY {BR=6K UMAX=180K USAT=10K BI=0 N=1 ACORE=.042 LPATH=3.4 FEDDY=150K} 
.ENDS
*INCLUDE MAGNETIC.LIB
**********
*SRC=M80618_1DMA;M80618_1DMA;Magnetic Cores;Permalloy Tape Wound 80;
*SYM=COREY
.SUBCKT M80618_1DMA 1 2 3
X1 1 2 3 COREY {BR=6K UMAX=180K USAT=10K BI=0 N=1 ACORE=.053 LPATH=3.4 FEDDY=75K} 
.ENDS
*INCLUDE MAGNETIC.LIB
**********
*ORTHONOL COREZ M80618
**********
*SRC=M80618_1/8AMA;M80618_1/8AMA;Magnetic Cores;Orthonol Tape Wound;
*SYM=COREZ
.SUBCKT M80618_1/8AMA 1 2 3
X1 1 2 3 COREZ {BR=14K UMAX=75K USAT=2K BI=0 N=1 ACORE=.016 LPATH=3.4 FEDDY=600K} 
.ENDS
*INCLUDE MAGNETIC.LIB
**********
*SRC=M80618_1/4AMA;M80618_1/4AMA;Magnetic Cores;Orthonol Tape Wound;
*SYM=COREZ
.SUBCKT M80618_1/4AMA 1 2 3
X1 1 2 3 COREZ {BR=14K UMAX=75K USAT=2K BI=0 N=1 ACORE=.0265 LPATH=3.4 FEDDY=300K} 
.ENDS
*INCLUDE MAGNETIC.LIB
**********
*SRC=M80618_1/2AMA;M80618_1/2AMA;Magnetic Cores;Orthonol Tape Wound;
*SYM=COREZ
.SUBCKT M80618_1/2AMA 1 2 3
X1 1 2 3 COREZ {BR=14K UMAX=75K USAT=2K BI=0 N=1 ACORE=.042 LPATH=3.4 FEDDY=150K} 
.ENDS
*INCLUDE MAGNETIC.LIB
**********
*SRC=M80618_1AMA;M80618_1AMA;Magnetic Cores;Orthonol Tape Wound;
*SYM=COREZ
.SUBCKT M80618_1AMA 1 2 3
X1 1 2 3 COREZ {BR=14K UMAX=75K USAT=2K BI=0 N=1 ACORE=.053 LPATH=3.4 FEDDY=75K} 
.ENDS
*INCLUDE MAGNETIC.LIB
**********
* PERMALLOY COREY M80600 
**********
*SRC=M80600_1/8DMA;M80600_1/8DMA;Magnetic Cores;Permalloy Tape Wound 80;
*SYM=COREY
.SUBCKT M80600_1/8DMA 1 2 3
X1 1 2 3 COREY {BR=6K UMAX=180K USAT=10K BI=0 N=1 ACORE=.016 LPATH=2.9 FEDDY=600K} 
.ENDS
*INCLUDE MAGNETIC.LIB
**********
*SRC=M80600_1/4DMA;M80600_1/4DMA;Magnetic Cores;Permalloy Tape Wound 80;
*SYM=COREY
.SUBCKT M80600_1/4DMA 1 2 3
X1 1 2 3 COREY {BR=6K UMAX=180K USAT=10K BI=0 N=1 ACORE=.0265 LPATH=2.9 FEDDY=300K} 
.ENDS
*INCLUDE MAGNETIC.LIB
**********
*SRC=M80600_1/2DMA;M80600_1/2DMA;Magnetic Cores;Permalloy Tape Wound 80;
*SYM=COREY
.SUBCKT M80600_1/2DMA 1 2 3
X1 1 2 3 COREY {BR=6K UMAX=180K USAT=10K BI=0 N=1 ACORE=.042 LPATH=2.9 FEDDY=150K} 
.ENDS
*INCLUDE MAGNETIC.LIB
**********
*SRC=M80600_1DMA;M80600_1DMA;Magnetic Cores;Permalloy Tape Wound 80;
*SYM=COREY
.SUBCKT M80600_1DMA 1 2 3
X1 1 2 3 COREY {BR=6K UMAX=180K USAT=10K BI=0 N=1 ACORE=.053 LPATH=2.9 FEDDY=75K} 
.ENDS
*INCLUDE MAGNETIC.LIB
**********
*ORTHONOL COREZ M80600
**********
*SRC=M80600_1/8AMA;M80600_1/8AMA;Magnetic Cores;Orthonol Tape Wound;
*SYM=COREZ
.SUBCKT M80600_1/8AMA 1 2 3
X1 1 2 3 COREZ {BR=14K UMAX=75K USAT=2K BI=0 N=1 ACORE=.016 LPATH=2.9 FEDDY=600K} 
.ENDS
*INCLUDE MAGNETIC.LIB
**********
*SRC=M80600_1/4AMA;M80600_1/4AMA;Magnetic Cores;Orthonol Tape Wound;
*SYM=COREZ
.SUBCKT M80600_1/4AMA 1 2 3
X1 1 2 3 COREZ {BR=14K UMAX=75K USAT=2K BI=0 N=1 ACORE=.0265 LPATH=2.9 FEDDY=300K} 
.ENDS
*INCLUDE MAGNETIC.LIB
**********
*SRC=M80600_1/2AMA;M80600_1/2AMA;Magnetic Cores;Orthonol Tape Wound;
*SYM=COREZ
.SUBCKT M80600_1/2AMA 1 2 3
X1 1 2 3 COREZ {BR=14K UMAX=75K USAT=2K BI=0 N=1 ACORE=.042 LPATH=2.9 FEDDY=150K} 
.ENDS
*INCLUDE MAGNETIC.LIB
**********
*SRC=M80600_1AMA;M80600_1AMA;Magnetic Cores;Orthonol Tape Wound;
*SYM=COREZ
.SUBCKT M80600_1AMA 1 2 3
X1 1 2 3 COREZ {BR=14K UMAX=75K USAT=2K BI=0 N=1 ACORE=.053 LPATH=2.9 FEDDY=75K} 
.ENDS
*INCLUDE MAGNETIC.LIB
**********
* PERMALLOY COREY M80617 
**********
*SRC=M80617_1/8DMA;M80617_1/8DMA;Magnetic Cores;Permalloy Tape Wound 80;
*SYM=COREY
.SUBCKT M80617_1/8DMA 1 2 3
X1 1 2 3 COREY {BR=6K UMAX=180K USAT=10K BI=0 N=1 ACORE=.012 LPATH=4.3 FEDDY=600K} 
.ENDS
*INCLUDE MAGNETIC.LIB
**********
*SRC=M80617_1/4DMA;M80617_1/4DMA;Magnetic Cores;Permalloy Tape Wound 80;
*SYM=COREY
.SUBCKT M80617_1/4DMA 1 2 3
X1 1 2 3 COREY {BR=6K UMAX=180K USAT=10K BI=0 N=1 ACORE=.02 LPATH=4.3 FEDDY=300K} 
.ENDS
*INCLUDE MAGNETIC.LIB
**********
*SRC=M80617_1/2DMA;M80617_1/2DMA;Magnetic Cores;Permalloy Tape Wound 80;
*SYM=COREY
.SUBCKT M80617_1/2DMA 1 2 3
X1 1 2 3 COREY {BR=6K UMAX=180K USAT=10K BI=0 N=1 ACORE=.032 LPATH=4.3 FEDDY=150K} 
.ENDS
*INCLUDE MAGNETIC.LIB
**********
*SRC=M80617_1DMA;M80617_1DMA;Magnetic Cores;Permalloy Tape Wound 80;
*SYM=COREY
.SUBCKT M80617_1DMA 1 2 3
X1 1 2 3 COREY {BR=6K UMAX=180K USAT=10K BI=0 N=1 ACORE=.0395 LPATH=4.3 FEDDY=75K} 
.ENDS
*INCLUDE MAGNETIC.LIB
**********
*ORTHONOL COREZ M80617
**********
*SRC=M80617_1/8AMA;M80617_1/8AMA;Magnetic Cores;Orthonol Tape Wound;
*SYM=COREZ
.SUBCKT M80617_1/8AMA 1 2 3
X1 1 2 3 COREZ {BR=14K UMAX=75K USAT=2K BI=0 N=1 ACORE=.012 LPATH=4.3 FEDDY=600K} 
.ENDS
*INCLUDE MAGNETIC.LIB
**********
*SRC=M80617_1/4AMA;M80617_1/4AMA;Magnetic Cores;Orthonol Tape Wound;
*SYM=COREZ
.SUBCKT M80617_1/4AMA 1 2 3
X1 1 2 3 COREZ {BR=14K UMAX=75K USAT=2K BI=0 N=1 ACORE=.02 LPATH=4.3 FEDDY=300K} 
.ENDS
*INCLUDE MAGNETIC.LIB
**********
*SRC=M80617_1/2AMA;M80617_1/2AMA;Magnetic Cores;Orthonol Tape Wound;
*SYM=COREZ
.SUBCKT M80617_1/2AMA 1 2 3
X1 1 2 3 COREZ {BR=14K UMAX=75K USAT=2K BI=0 N=1 ACORE=.032 LPATH=4.3 FEDDY=150K} 
.ENDS
*INCLUDE MAGNETIC.LIB
**********
*SRC=M80617_1AMA;M80617_1AMA;Magnetic Cores;Orthonol Tape Wound;
*SYM=COREZ
.SUBCKT M80617_1AMA 1 2 3
X1 1 2 3 COREZ {BR=14K UMAX=75K USAT=2K BI=0 N=1 ACORE=.0395 LPATH=4.3 FEDDY=75K} 
.ENDS
*INCLUDE MAGNETIC.LIB
**********
* PERMALLOY COREY M80616 
**********
*SRC=M80616_1/8DMA;M80616_1/8DMA;Magnetic Cores;Permalloy Tape Wound 80;
*SYM=COREY
.SUBCKT M80616_1/8DMA 1 2 3
X1 1 2 3 COREY {BR=6K UMAX=180K USAT=10K BI=0 N=1 ACORE=.012 LPATH=3.8 FEDDY=600K} 
.ENDS
*INCLUDE MAGNETIC.LIB
**********
*SRC=M80616_1/4DMA;M80616_1/4DMA;Magnetic Cores;Permalloy Tape Wound 80;
*SYM=COREY
.SUBCKT M80616_1/4DMA 1 2 3
X1 1 2 3 COREY {BR=6K UMAX=180K USAT=10K BI=0 N=1 ACORE=.02 LPATH=3.8 FEDDY=300K} 
.ENDS
*INCLUDE MAGNETIC.LIB
**********
*SRC=M80616_1/2DMA;M80616_1/2DMA;Magnetic Cores;Permalloy Tape Wound 80;
*SYM=COREY
.SUBCKT M80616_1/2DMA 1 2 3
X1 1 2 3 COREY {BR=6K UMAX=180K USAT=10K BI=0 N=1 ACORE=.032 LPATH=3.8 FEDDY=150K} 
.ENDS
*INCLUDE MAGNETIC.LIB
**********
*SRC=M80616_1DMA;M80616_1DMA;Magnetic Cores;Permalloy Tape Wound 80;
*SYM=COREY
.SUBCKT M80616_1DMA 1 2 3
X1 1 2 3 COREY {BR=6K UMAX=180K USAT=10K BI=0 N=1 ACORE=.0395 LPATH=3.8 FEDDY=75K} 
.ENDS
*INCLUDE MAGNETIC.LIB
**********
*ORTHONOL COREZ M80616
**********
*SRC=M80616_1/8AMA;M80616_1/8AMA;Magnetic Cores;Orthonol Tape Wound;
*SYM=COREZ
.SUBCKT M80616_1/8AMA 1 2 3
X1 1 2 3 COREZ {BR=14K UMAX=75K USAT=2K BI=0 N=1 ACORE=.012 LPATH=3.8 FEDDY=600K} 
.ENDS
*INCLUDE MAGNETIC.LIB
**********
*SRC=M80616_1/4AMA;M80616_1/4AMA;Magnetic Cores;Orthonol Tape Wound;
*SYM=COREZ
.SUBCKT M80616_1/4AMA 1 2 3
X1 1 2 3 COREZ {BR=14K UMAX=75K USAT=2K BI=0 N=1 ACORE=.02 LPATH=3.8 FEDDY=300K} 
.ENDS
*INCLUDE MAGNETIC.LIB
**********
*SRC=M80616_1/2AMA;M80616_1/2AMA;Magnetic Cores;Orthonol Tape Wound;
*SYM=COREZ
.SUBCKT M80616_1/2AMA 1 2 3
X1 1 2 3 COREZ {BR=14K UMAX=75K USAT=2K BI=0 N=1 ACORE=.032 LPATH=3.8 FEDDY=150K} 
.ENDS
*INCLUDE MAGNETIC.LIB
**********
*SRC=M80616_1AMA;M80616_1AMA;Magnetic Cores;Orthonol Tape Wound;
*SYM=COREZ
.SUBCKT M80616_1AMA 1 2 3
X1 1 2 3 COREZ {BR=14K UMAX=75K USAT=2K BI=0 N=1 ACORE=.0395 LPATH=3.8 FEDDY=75K} 
.ENDS
*INCLUDE MAGNETIC.LIB
**********
* PERMALLOY COREY M80517 
**********
*SRC=M80517_1/8DMA;M80517_1/8DMA;Magnetic Cores;Permalloy Tape Wound 80;
*SYM=COREY
.SUBCKT M80517_1/8DMA 1 2 3
X1 1 2 3 COREY {BR=6K UMAX=180K USAT=10K BI=0 N=1 ACORE=.012 LPATH=3.3 FEDDY=600K} 
.ENDS
*INCLUDE MAGNETIC.LIB
**********
*SRC=M80517_1/4DMA;M80517_1/4DMA;Magnetic Cores;Permalloy Tape Wound 80;
*SYM=COREY
.SUBCKT M80517_1/4DMA 1 2 3
X1 1 2 3 COREY {BR=6K UMAX=180K USAT=10K BI=0 N=1 ACORE=.02 LPATH=3.3 FEDDY=300K} 
.ENDS
*INCLUDE MAGNETIC.LIB
**********
*SRC=M80517_1/2DMA;M80517_1/2DMA;Magnetic Cores;Permalloy Tape Wound 80;
*SYM=COREY
.SUBCKT M80517_1/2DMA 1 2 3
X1 1 2 3 COREY {BR=6K UMAX=180K USAT=10K BI=0 N=1 ACORE=.032 LPATH=3.3 FEDDY=150K} 
.ENDS
*INCLUDE MAGNETIC.LIB
**********
*SRC=M80517_1DMA;M80517_1DMA;Magnetic Cores;Permalloy Tape Wound 80;
*SYM=COREY
.SUBCKT M80517_1DMA 1 2 3
X1 1 2 3 COREY {BR=6K UMAX=180K USAT=10K BI=0 N=1 ACORE=.0395 LPATH=3.3 FEDDY=75K} 
.ENDS
*INCLUDE MAGNETIC.LIB
**********
*ORTHONOL COREZ M80517
**********
*SRC=M80517_1/8AMA;M80517_1/8AMA;Magnetic Cores;Orthonol Tape Wound;
*SYM=COREZ
.SUBCKT M80517_1/8AMA 1 2 3
X1 1 2 3 COREZ {BR=14K UMAX=75K USAT=2K BI=0 N=1 ACORE=.012 LPATH=3.3 FEDDY=600K} 
.ENDS
*INCLUDE MAGNETIC.LIB
**********
*SRC=M80517_1/4AMA;M80517_1/4AMA;Magnetic Cores;Orthonol Tape Wound;
*SYM=COREZ
.SUBCKT M80517_1/4AMA 1 2 3
X1 1 2 3 COREZ {BR=14K UMAX=75K USAT=2K BI=0 N=1 ACORE=.02 LPATH=3.3 FEDDY=300K} 
.ENDS
*INCLUDE MAGNETIC.LIB
**********
*SRC=M80517_1/2AMA;M80517_1/2AMA;Magnetic Cores;Orthonol Tape Wound;
*SYM=COREZ
.SUBCKT M80517_1/2AMA 1 2 3
X1 1 2 3 COREZ {BR=14K UMAX=75K USAT=2K BI=0 N=1 ACORE=.032 LPATH=3.3 FEDDY=150K} 
.ENDS
*INCLUDE MAGNETIC.LIB
**********
*SRC=M80517_1AMA;M80517_1AMA;Magnetic Cores;Orthonol Tape Wound;
*SYM=COREZ
.SUBCKT M80517_1AMA 1 2 3
X1 1 2 3 COREZ {BR=14K UMAX=75K USAT=2K BI=0 N=1 ACORE=.0395 LPATH=3.3 FEDDY=75K} 
.ENDS
*INCLUDE MAGNETIC.LIB
**********
* PERMALLOY COREY M80539 
**********
*SRC=M80539_1/8DMA;M80539_1/8DMA;Magnetic Cores;Permalloy Tape Wound 80;
*SYM=COREY
.SUBCKT M80539_1/8DMA 1 2 3
X1 1 2 3 COREY {BR=6K UMAX=180K USAT=10K BI=0 N=1 ACORE=.012 LPATH=2.8 FEDDY=600K} 
.ENDS
*INCLUDE MAGNETIC.LIB
**********
*SRC=M80539_1/4DMA;M80539_1/4DMA;Magnetic Cores;Permalloy Tape Wound 80;
*SYM=COREY
.SUBCKT M80539_1/4DMA 1 2 3
X1 1 2 3 COREY {BR=6K UMAX=180K USAT=10K BI=0 N=1 ACORE=.02 LPATH=2.8 FEDDY=300K} 
.ENDS
*INCLUDE MAGNETIC.LIB
**********
*SRC=M80539_1/2DMA;M80539_1/2DMA;Magnetic Cores;Permalloy Tape Wound 80;
*SYM=COREY
.SUBCKT M80539_1/2DMA 1 2 3
X1 1 2 3 COREY {BR=6K UMAX=180K USAT=10K BI=0 N=1 ACORE=.032 LPATH=2.8 FEDDY=150K} 
.ENDS
*INCLUDE MAGNETIC.LIB
**********
*SRC=M80539_1DMA;M80539_1DMA;Magnetic Cores;Permalloy Tape Wound 80;
*SYM=COREY
.SUBCKT M80539_1DMA 1 2 3
X1 1 2 3 COREY {BR=6K UMAX=180K USAT=10K BI=0 N=1 ACORE=.0395 LPATH=2.8 FEDDY=75K} 
.ENDS
*INCLUDE MAGNETIC.LIB
**********
*ORTHONOL COREZ M80539
**********
*SRC=M80539_1/8AMA;M80539_1/8AMA;Magnetic Cores;Orthonol Tape Wound;
*SYM=COREZ
.SUBCKT M80539_1/8AMA 1 2 3
X1 1 2 3 COREZ {BR=14K UMAX=75K USAT=2K BI=0 N=1 ACORE=.012 LPATH=2.8 FEDDY=600K} 
.ENDS
*INCLUDE MAGNETIC.LIB
**********
*SRC=M80539_1/4AMA;M80539_1/4AMA;Magnetic Cores;Orthonol Tape Wound;
*SYM=COREZ
.SUBCKT M80539_1/4AMA 1 2 3
X1 1 2 3 COREZ {BR=14K UMAX=75K USAT=2K BI=0 N=1 ACORE=.02 LPATH=2.8 FEDDY=300K} 
.ENDS
*INCLUDE MAGNETIC.LIB
**********
*SRC=M80539_1/2AMA;M80539_1/2AMA;Magnetic Cores;Orthonol Tape Wound;
*SYM=COREZ
.SUBCKT M80539_1/2AMA 1 2 3
X1 1 2 3 COREZ {BR=14K UMAX=75K USAT=2K BI=0 N=1 ACORE=.032 LPATH=2.8 FEDDY=150K} 
.ENDS
*INCLUDE MAGNETIC.LIB
**********
*SRC=M80539_1AMA;M80539_1AMA;Magnetic Cores;Orthonol Tape Wound;
*SYM=COREZ
.SUBCKT M80539_1AMA 1 2 3
X1 1 2 3 COREZ {BR=14K UMAX=75K USAT=2K BI=0 N=1 ACORE=.0395 LPATH=2.8 FEDDY=75K} 
.ENDS
*INCLUDE MAGNETIC.LIB
**********
* PERMALLOY COREY M80560 
**********
*SRC=M80560_1/8DMA;M80560_1/8DMA;Magnetic Cores;Permalloy Tape Wound 80;
*SYM=COREY
.SUBCKT M80560_1/8DMA 1 2 3
X1 1 2 3 COREY {BR=6K UMAX=180K USAT=10K BI=0 N=1 ACORE=.012 LPATH=2.3 FEDDY=600K} 
.ENDS
*INCLUDE MAGNETIC.LIB
**********
*SRC=M80560_1/4DMA;M80560_1/4DMA;Magnetic Cores;Permalloy Tape Wound 80;
*SYM=COREY
.SUBCKT M80560_1/4DMA 1 2 3
X1 1 2 3 COREY {BR=6K UMAX=180K USAT=10K BI=0 N=1 ACORE=.02 LPATH=2.3 FEDDY=300K} 
.ENDS
*INCLUDE MAGNETIC.LIB
**********
*SRC=M80560_1/2DMA;M80560_1/2DMA;Magnetic Cores;Permalloy Tape Wound 80;
*SYM=COREY
.SUBCKT M80560_1/2DMA 1 2 3
X1 1 2 3 COREY {BR=6K UMAX=180K USAT=10K BI=0 N=1 ACORE=.032 LPATH=2.3 FEDDY=150K} 
.ENDS
*INCLUDE MAGNETIC.LIB
**********
*SRC=M80560_1DMA;M80560_1DMA;Magnetic Cores;Permalloy Tape Wound 80;
*SYM=COREY
.SUBCKT M80560_1DMA 1 2 3
X1 1 2 3 COREY {BR=6K UMAX=180K USAT=10K BI=0 N=1 ACORE=.0395 LPATH=2.3 FEDDY=75K} 
.ENDS
*INCLUDE MAGNETIC.LIB
**********
*ORTHONOL COREZ M80560
**********
*SRC=M80560_1/8AMA;M80560_1/8AMA;Magnetic Cores;Orthonol Tape Wound;
*SYM=COREZ
.SUBCKT M80560_1/8AMA 1 2 3
X1 1 2 3 COREZ {BR=14K UMAX=75K USAT=2K BI=0 N=1 ACORE=.012 LPATH=2.3 FEDDY=600K} 
.ENDS
*INCLUDE MAGNETIC.LIB
**********
*SRC=M80560_1/4AMA;M80560_1/4AMA;Magnetic Cores;Orthonol Tape Wound;
*SYM=COREZ
.SUBCKT M80560_1/4AMA 1 2 3
X1 1 2 3 COREZ {BR=14K UMAX=75K USAT=2K BI=0 N=1 ACORE=.02 LPATH=2.3 FEDDY=300K} 
.ENDS
*INCLUDE MAGNETIC.LIB
**********
*SRC=M80560_1/2AMA;M80560_1/2AMA;Magnetic Cores;Orthonol Tape Wound;
*SYM=COREZ
.SUBCKT M80560_1/2AMA 1 2 3
X1 1 2 3 COREZ {BR=14K UMAX=75K USAT=2K BI=0 N=1 ACORE=.032 LPATH=2.3 FEDDY=150K} 
.ENDS
*INCLUDE MAGNETIC.LIB
**********
*SRC=M80560_1AMA;M80560_1AMA;Magnetic Cores;Orthonol Tape Wound;
*SYM=COREZ
.SUBCKT M80560_1AMA 1 2 3
X1 1 2 3 COREZ {BR=14K UMAX=75K USAT=2K BI=0 N=1 ACORE=.0395 LPATH=2.3 FEDDY=75K} 
.ENDS
*INCLUDE MAGNETIC.LIB
**********
* PERMALLOY COREY M80581 
**********
*SRC=M80581_1/8DMA;M80581_1/8DMA;Magnetic Cores;Permalloy Tape Wound 80;
*SYM=COREY
.SUBCKT M80581_1/8DMA 1 2 3
X1 1 2 3 COREY {BR=6K UMAX=180K USAT=10K BI=0 N=1 ACORE=.006 LPATH=2.8 FEDDY=600K} 
.ENDS
*INCLUDE MAGNETIC.LIB
**********
*SRC=M80581_1/4DMA;M80581_1/4DMA;Magnetic Cores;Permalloy Tape Wound 80;
*SYM=COREY
.SUBCKT M80581_1/4DMA 1 2 3
X1 1 2 3 COREY {BR=6K UMAX=180K USAT=10K BI=0 N=1 ACORE=.01 LPATH=2.8 FEDDY=300K} 
.ENDS
*INCLUDE MAGNETIC.LIB
**********
*SRC=M80581_1/2DMA;M80581_1/2DMA;Magnetic Cores;Permalloy Tape Wound 80;
*SYM=COREY
.SUBCKT M80581_1/2DMA 1 2 3
X1 1 2 3 COREY {BR=6K UMAX=180K USAT=10K BI=0 N=1 ACORE=.016 LPATH=2.8 FEDDY=150K} 
.ENDS
*INCLUDE MAGNETIC.LIB
**********
*SRC=M80581_1DMA;M80581_1DMA;Magnetic Cores;Permalloy Tape Wound 80;
*SYM=COREY
.SUBCKT M80581_1DMA 1 2 3
X1 1 2 3 COREY {BR=6K UMAX=180K USAT=10K BI=0 N=1 ACORE=.0198 LPATH=2.8 FEDDY=75K} 
.ENDS
*INCLUDE MAGNETIC.LIB
**********
*ORTHONOL COREZ M80581
**********
*SRC=M80581_1/8AMA;M80581_1/8AMA;Magnetic Cores;Orthonol Tape Wound;
*SYM=COREZ
.SUBCKT M80581_1/8AMA 1 2 3
X1 1 2 3 COREZ {BR=14K UMAX=75K USAT=2K BI=0 N=1 ACORE=.006 LPATH=2.8 FEDDY=600K} 
.ENDS
*INCLUDE MAGNETIC.LIB
**********
*SRC=M80581_1/4AMA;M80581_1/4AMA;Magnetic Cores;Orthonol Tape Wound;
*SYM=COREZ
.SUBCKT M80581_1/4AMA 1 2 3
X1 1 2 3 COREZ {BR=14K UMAX=75K USAT=2K BI=0 N=1 ACORE=.01 LPATH=2.8 FEDDY=300K} 
.ENDS
*INCLUDE MAGNETIC.LIB
**********
*SRC=M80581_1/2AMA;M80581_1/2AMA;Magnetic Cores;Orthonol Tape Wound;
*SYM=COREZ
.SUBCKT M80581_1/2AMA 1 2 3
X1 1 2 3 COREZ {BR=14K UMAX=75K USAT=2K BI=0 N=1 ACORE=.016 LPATH=2.8 FEDDY=150K} 
.ENDS
*INCLUDE MAGNETIC.LIB
**********
*SRC=M80581_1AMA;M80581_1AMA;Magnetic Cores;Orthonol Tape Wound;
*SYM=COREZ
.SUBCKT M80581_1AMA 1 2 3
X1 1 2 3 COREZ {BR=14K UMAX=75K USAT=2K BI=0 N=1 ACORE=.0198 LPATH=2.8 FEDDY=75K} 
.ENDS
*INCLUDE MAGNETIC.LIB
**********
* PERMALLOY COREY M80558 
**********
*SRC=M80558_1/8DMA;M80558_1/8DMA;Magnetic Cores;Permalloy Tape Wound 80;
*SYM=COREY
.SUBCKT M80558_1/8DMA 1 2 3
X1 1 2 3 COREY {BR=6K UMAX=180K USAT=10K BI=0 N=1 ACORE=.006 LPATH=2.3 FEDDY=600K} 
.ENDS
*INCLUDE MAGNETIC.LIB
**********
*SRC=M80558_1/4DMA;M80558_1/4DMA;Magnetic Cores;Permalloy Tape Wound 80;
*SYM=COREY
.SUBCKT M80558_1/4DMA 1 2 3
X1 1 2 3 COREY {BR=6K UMAX=180K USAT=10K BI=0 N=1 ACORE=.01 LPATH=2.3 FEDDY=300K} 
.ENDS
*INCLUDE MAGNETIC.LIB
**********
*SRC=M80558_1/2DMA;M80558_1/2DMA;Magnetic Cores;Permalloy Tape Wound 80;
*SYM=COREY
.SUBCKT M80558_1/2DMA 1 2 3
X1 1 2 3 COREY {BR=6K UMAX=180K USAT=10K BI=0 N=1 ACORE=.016 LPATH=2.3 FEDDY=150K} 
.ENDS
*INCLUDE MAGNETIC.LIB
**********
*SRC=M80558_1DMA;M80558_1DMA;Magnetic Cores;Permalloy Tape Wound 80;
*SYM=COREY
.SUBCKT M80558_1DMA 1 2 3
X1 1 2 3 COREY {BR=6K UMAX=180K USAT=10K BI=0 N=1 ACORE=.0198 LPATH=2.3 FEDDY=75K} 
.ENDS
*INCLUDE MAGNETIC.LIB
**********
*ORTHONOL COREZ M80558
**********
*SRC=M80558_1/8AMA;M80558_1/8AMA;Magnetic Cores;Orthonol Tape Wound;
*SYM=COREZ
.SUBCKT M80558_1/8AMA 1 2 3
X1 1 2 3 COREZ {BR=14K UMAX=75K USAT=2K BI=0 N=1 ACORE=.006 LPATH=2.3 FEDDY=600K} 
.ENDS
*INCLUDE MAGNETIC.LIB
**********
*SRC=M80558_1/4AMA;M80558_1/4AMA;Magnetic Cores;Orthonol Tape Wound;
*SYM=COREZ
.SUBCKT M80558_1/4AMA 1 2 3
X1 1 2 3 COREZ {BR=14K UMAX=75K USAT=2K BI=0 N=1 ACORE=.01 LPATH=2.3 FEDDY=300K} 
.ENDS
*INCLUDE MAGNETIC.LIB
**********
*SRC=M80558_1/2AMA;M80558_1/2AMA;Magnetic Cores;Orthonol Tape Wound;
*SYM=COREZ
.SUBCKT M80558_1/2AMA 1 2 3
X1 1 2 3 COREZ {BR=14K UMAX=75K USAT=2K BI=0 N=1 ACORE=.016 LPATH=2.3 FEDDY=150K} 
.ENDS
*INCLUDE MAGNETIC.LIB
**********
*SRC=M80558_1AMA;M80558_1AMA;Magnetic Cores;Orthonol Tape Wound;
*SYM=COREZ
.SUBCKT M80558_1AMA 1 2 3
X1 1 2 3 COREZ {BR=14K UMAX=75K USAT=2K BI=0 N=1 ACORE=.0198 LPATH=2.3 FEDDY=75K} 
.ENDS
*INCLUDE MAGNETIC.LIB
**********
* PERMALLOY COREY M80609 
**********
*SRC=M80609_1/8DMA;M80609_1/8DMA;Magnetic Cores;Permalloy Tape Wound 80;
*SYM=COREY
.SUBCKT M80609_1/8DMA 1 2 3
X1 1 2 3 COREY {BR=6K UMAX=180K USAT=10K BI=0 N=1 ACORE=.004 LPATH=4.2 FEDDY=600K} 
.ENDS
*INCLUDE MAGNETIC.LIB
**********
*SRC=M80609_1/4DMA;M80609_1/4DMA;Magnetic Cores;Permalloy Tape Wound 80;
*SYM=COREY
.SUBCKT M80609_1/4DMA 1 2 3
X1 1 2 3 COREY {BR=6K UMAX=180K USAT=10K BI=0 N=1 ACORE=.0066 LPATH=4.2 FEDDY=300K} 
.ENDS
*INCLUDE MAGNETIC.LIB
**********
*SRC=M80609_1/2DMA;M80609_1/2DMA;Magnetic Cores;Permalloy Tape Wound 80;
*SYM=COREY
.SUBCKT M80609_1/2DMA 1 2 3
X1 1 2 3 COREY {BR=6K UMAX=180K USAT=10K BI=0 N=1 ACORE=.0105 LPATH=4.2 FEDDY=150K} 
.ENDS
*INCLUDE MAGNETIC.LIB
**********
*SRC=M80609_1DMA;M80609_1DMA;Magnetic Cores;Permalloy Tape Wound 80;
*SYM=COREY
.SUBCKT M80609_1DMA 1 2 3
X1 1 2 3 COREY {BR=6K UMAX=180K USAT=10K BI=0 N=1 ACORE=.0132 LPATH=4.2 FEDDY=75K} 
.ENDS
*INCLUDE MAGNETIC.LIB
**********
*ORTHONOL COREZ M80609
**********
*SRC=M80609_1/8AMA;M80609_1/8AMA;Magnetic Cores;Orthonol Tape Wound;
*SYM=COREZ
.SUBCKT M80609_1/8AMA 1 2 3
X1 1 2 3 COREZ {BR=14K UMAX=75K USAT=2K BI=0 N=1 ACORE=.004 LPATH=4.2 FEDDY=600K} 
.ENDS
*INCLUDE MAGNETIC.LIB
**********
*SRC=M80609_1/4AMA;M80609_1/4AMA;Magnetic Cores;Orthonol Tape Wound;
*SYM=COREZ
.SUBCKT M80609_1/4AMA 1 2 3
X1 1 2 3 COREZ {BR=14K UMAX=75K USAT=2K BI=0 N=1 ACORE=.0066 LPATH=4.2 FEDDY=300K} 
.ENDS
*INCLUDE MAGNETIC.LIB
**********
*SRC=M80609_1/2AMA;M80609_1/2AMA;Magnetic Cores;Orthonol Tape Wound;
*SYM=COREZ
.SUBCKT M80609_1/2AMA 1 2 3
X1 1 2 3 COREZ {BR=14K UMAX=75K USAT=2K BI=0 N=1 ACORE=.0105 LPATH=4.2 FEDDY=150K} 
.ENDS
*INCLUDE MAGNETIC.LIB
**********
*SRC=M80609_1AMA;M80609_1AMA;Magnetic Cores;Orthonol Tape Wound;
*SYM=COREZ
.SUBCKT M80609_1AMA 1 2 3
X1 1 2 3 COREZ {BR=14K UMAX=75K USAT=2K BI=0 N=1 ACORE=.0132 LPATH=4.2 FEDDY=75K} 
.ENDS
*INCLUDE MAGNETIC.LIB
**********
* PERMALLOY COREY M80608 
**********
*SRC=M80608_1/8DMA;M80608_1/8DMA;Magnetic Cores;Permalloy Tape Wound 80;
*SYM=COREY
.SUBCKT M80608_1/8DMA 1 2 3
X1 1 2 3 COREY {BR=6K UMAX=180K USAT=10K BI=0 N=1 ACORE=.004 LPATH=3.7 FEDDY=600K} 
.ENDS
*INCLUDE MAGNETIC.LIB
**********
*SRC=M80608_1/4DMA;M80608_1/4DMA;Magnetic Cores;Permalloy Tape Wound 80;
*SYM=COREY
.SUBCKT M80608_1/4DMA 1 2 3
X1 1 2 3 COREY {BR=6K UMAX=180K USAT=10K BI=0 N=1 ACORE=.0066 LPATH=3.7 FEDDY=300K} 
.ENDS
*INCLUDE MAGNETIC.LIB
**********
*SRC=M80608_1/2DMA;M80608_1/2DMA;Magnetic Cores;Permalloy Tape Wound 80;
*SYM=COREY
.SUBCKT M80608_1/2DMA 1 2 3
X1 1 2 3 COREY {BR=6K UMAX=180K USAT=10K BI=0 N=1 ACORE=.0105 LPATH=3.7 FEDDY=150K} 
.ENDS
*INCLUDE MAGNETIC.LIB
**********
*SRC=M80608_1DMA;M80608_1DMA;Magnetic Cores;Permalloy Tape Wound 80;
*SYM=COREY
.SUBCKT M80608_1DMA 1 2 3
X1 1 2 3 COREY {BR=6K UMAX=180K USAT=10K BI=0 N=1 ACORE=.0132 LPATH=3.7 FEDDY=75K} 
.ENDS
*INCLUDE MAGNETIC.LIB
**********
*ORTHONOL COREZ M80608
**********
*SRC=M80608_1/8AMA;M80608_1/8AMA;Magnetic Cores;Orthonol Tape Wound;
*SYM=COREZ
.SUBCKT M80608_1/8AMA 1 2 3
X1 1 2 3 COREZ {BR=14K UMAX=75K USAT=2K BI=0 N=1 ACORE=.004 LPATH=3.7 FEDDY=600K} 
.ENDS
*INCLUDE MAGNETIC.LIB
**********
*SRC=M80608_1/4AMA;M80608_1/4AMA;Magnetic Cores;Orthonol Tape Wound;
*SYM=COREZ
.SUBCKT M80608_1/4AMA 1 2 3
X1 1 2 3 COREZ {BR=14K UMAX=75K USAT=2K BI=0 N=1 ACORE=.0066 LPATH=3.7 FEDDY=300K} 
.ENDS
*INCLUDE MAGNETIC.LIB
**********
*SRC=M80608_1/2AMA;M80608_1/2AMA;Magnetic Cores;Orthonol Tape Wound;
*SYM=COREZ
.SUBCKT M80608_1/2AMA 1 2 3
X1 1 2 3 COREZ {BR=14K UMAX=75K USAT=2K BI=0 N=1 ACORE=.0105 LPATH=3.7 FEDDY=150K} 
.ENDS
*INCLUDE MAGNETIC.LIB
**********
*SRC=M80608_1AMA;M80608_1AMA;Magnetic Cores;Orthonol Tape Wound;
*SYM=COREZ
.SUBCKT M80608_1AMA 1 2 3
X1 1 2 3 COREZ {BR=14K UMAX=75K USAT=2K BI=0 N=1 ACORE=.0132 LPATH=3.7 FEDDY=75K} 
.ENDS
*INCLUDE MAGNETIC.LIB
**********
* PERMALLOY COREY M80531 
**********
*SRC=M80531_1/8DMA;M80531_1/8DMA;Magnetic Cores;Permalloy Tape Wound 80;
*SYM=COREY
.SUBCKT M80531_1/8DMA 1 2 3
X1 1 2 3 COREY {BR=6K UMAX=180K USAT=10K BI=0 N=1 ACORE=.004 LPATH=3.2 FEDDY=600K} 
.ENDS
*INCLUDE MAGNETIC.LIB
**********
*SRC=M80531_1/4DMA;M80531_1/4DMA;Magnetic Cores;Permalloy Tape Wound 80;
*SYM=COREY
.SUBCKT M80531_1/4DMA 1 2 3
X1 1 2 3 COREY {BR=6K UMAX=180K USAT=10K BI=0 N=1 ACORE=.0066 LPATH=3.2 FEDDY=300K} 
.ENDS
*INCLUDE MAGNETIC.LIB
**********
*SRC=M80531_1/2DMA;M80531_1/2DMA;Magnetic Cores;Permalloy Tape Wound 80;
*SYM=COREY
.SUBCKT M80531_1/2DMA 1 2 3
X1 1 2 3 COREY {BR=6K UMAX=180K USAT=10K BI=0 N=1 ACORE=.0105 LPATH=3.2 FEDDY=150K} 
.ENDS
*INCLUDE MAGNETIC.LIB
**********
*SRC=M80531_1DMA;M80531_1DMA;Magnetic Cores;Permalloy Tape Wound 80;
*SYM=COREY
.SUBCKT M80531_1DMA 1 2 3
X1 1 2 3 COREY {BR=6K UMAX=180K USAT=10K BI=0 N=1 ACORE=.0132 LPATH=3.2 FEDDY=75K} 
.ENDS
*INCLUDE MAGNETIC.LIB
**********
*ORTHONOL COREZ M80531
**********
*SRC=M80531_1/8AMA;M80531_1/8AMA;Magnetic Cores;Orthonol Tape Wound;
*SYM=COREZ
.SUBCKT M80531_1/8AMA 1 2 3
X1 1 2 3 COREZ {BR=14K UMAX=75K USAT=2K BI=0 N=1 ACORE=.004 LPATH=3.2 FEDDY=600K} 
.ENDS
*INCLUDE MAGNETIC.LIB
**********
*SRC=M80531_1/4AMA;M80531_1/4AMA;Magnetic Cores;Orthonol Tape Wound;
*SYM=COREZ
.SUBCKT M80531_1/4AMA 1 2 3
X1 1 2 3 COREZ {BR=14K UMAX=75K USAT=2K BI=0 N=1 ACORE=.0066 LPATH=3.2 FEDDY=300K} 
.ENDS
*INCLUDE MAGNETIC.LIB
**********
*SRC=M80531_1/2AMA;M80531_1/2AMA;Magnetic Cores;Orthonol Tape Wound;
*SYM=COREZ
.SUBCKT M80531_1/2AMA 1 2 3
X1 1 2 3 COREZ {BR=14K UMAX=75K USAT=2K BI=0 N=1 ACORE=.0105 LPATH=3.2 FEDDY=150K} 
.ENDS
*INCLUDE MAGNETIC.LIB
**********
*SRC=M80531_1AMA;M80531_1AMA;Magnetic Cores;Orthonol Tape Wound;
*SYM=COREZ
.SUBCKT M80531_1AMA 1 2 3
X1 1 2 3 COREZ {BR=14K UMAX=75K USAT=2K BI=0 N=1 ACORE=.0132 LPATH=3.2 FEDDY=75K} 
.ENDS
*INCLUDE MAGNETIC.LIB
**********
* PERMALLOY COREY M80524 
**********
*SRC=M80524_1/8DMA;M80524_1/8DMA;Magnetic Cores;Permalloy Tape Wound 80;
*SYM=COREY
.SUBCKT M80524_1/8DMA 1 2 3
X1 1 2 3 COREY {BR=6K UMAX=180K USAT=10K BI=0 N=1 ACORE=.004 LPATH=2.7 FEDDY=600K} 
.ENDS
*INCLUDE MAGNETIC.LIB
**********
*SRC=M80524_1/4DMA;M80524_1/4DMA;Magnetic Cores;Permalloy Tape Wound 80;
*SYM=COREY
.SUBCKT M80524_1/4DMA 1 2 3
X1 1 2 3 COREY {BR=6K UMAX=180K USAT=10K BI=0 N=1 ACORE=.0066 LPATH=2.7 FEDDY=300K} 
.ENDS
*INCLUDE MAGNETIC.LIB
**********
*SRC=M80524_1/2DMA;M80524_1/2DMA;Magnetic Cores;Permalloy Tape Wound 80;
*SYM=COREY
.SUBCKT M80524_1/2DMA 1 2 3
X1 1 2 3 COREY {BR=6K UMAX=180K USAT=10K BI=0 N=1 ACORE=.0105 LPATH=2.7 FEDDY=150K} 
.ENDS
*INCLUDE MAGNETIC.LIB
**********
*SRC=M80524_1DMA;M80524_1DMA;Magnetic Cores;Permalloy Tape Wound 80;
*SYM=COREY
.SUBCKT M80524_1DMA 1 2 3
X1 1 2 3 COREY {BR=6K UMAX=180K USAT=10K BI=0 N=1 ACORE=.0132 LPATH=2.7 FEDDY=75K} 
.ENDS
*INCLUDE MAGNETIC.LIB
**********
*ORTHONOL COREZ M80524
**********
*SRC=M80524_1/8AMA;M80524_1/8AMA;Magnetic Cores;Orthonol Tape Wound;
*SYM=COREZ
.SUBCKT M80524_1/8AMA 1 2 3
X1 1 2 3 COREZ {BR=14K UMAX=75K USAT=2K BI=0 N=1 ACORE=.004 LPATH=2.7 FEDDY=600K} 
.ENDS
*INCLUDE MAGNETIC.LIB
**********
*SRC=M80524_1/4AMA;M80524_1/4AMA;Magnetic Cores;Orthonol Tape Wound;
*SYM=COREZ
.SUBCKT M80524_1/4AMA 1 2 3
X1 1 2 3 COREZ {BR=14K UMAX=75K USAT=2K BI=0 N=1 ACORE=.0066 LPATH=2.7 FEDDY=300K} 
.ENDS
*INCLUDE MAGNETIC.LIB
**********
*SRC=M80524_1/2AMA;M80524_1/2AMA;Magnetic Cores;Orthonol Tape Wound;
*SYM=COREZ
.SUBCKT M80524_1/2AMA 1 2 3
X1 1 2 3 COREZ {BR=14K UMAX=75K USAT=2K BI=0 N=1 ACORE=.0105 LPATH=2.7 FEDDY=150K} 
.ENDS
*INCLUDE MAGNETIC.LIB
**********
*SRC=M80524_1AMA;M80524_1AMA;Magnetic Cores;Orthonol Tape Wound;
*SYM=COREZ
.SUBCKT M80524_1AMA 1 2 3
X1 1 2 3 COREZ {BR=14K UMAX=75K USAT=2K BI=0 N=1 ACORE=.0132 LPATH=2.7 FEDDY=75K} 
.ENDS
*INCLUDE MAGNETIC.LIB
**********
* PERMALLOY COREY M80530 
**********
*SRC=M80530_1/8DMA;M80530_1/8DMA;Magnetic Cores;Permalloy Tape Wound 80;
*SYM=COREY
.SUBCKT M80530_1/8DMA 1 2 3
X1 1 2 3 COREY {BR=6K UMAX=180K USAT=10K BI=0 N=1 ACORE=.004 LPATH=2.2 FEDDY=600K} 
.ENDS
*INCLUDE MAGNETIC.LIB
**********
*SRC=M80530_1/4DMA;M80530_1/4DMA;Magnetic Cores;Permalloy Tape Wound 80;
*SYM=COREY
.SUBCKT M80530_1/4DMA 1 2 3
X1 1 2 3 COREY {BR=6K UMAX=180K USAT=10K BI=0 N=1 ACORE=.0066 LPATH=2.2 FEDDY=300K} 
.ENDS
*INCLUDE MAGNETIC.LIB
**********
*SRC=M80530_1/2DMA;M80530_1/2DMA;Magnetic Cores;Permalloy Tape Wound 80;
*SYM=COREY
.SUBCKT M80530_1/2DMA 1 2 3
X1 1 2 3 COREY {BR=6K UMAX=180K USAT=10K BI=0 N=1 ACORE=.0105 LPATH=2.2 FEDDY=150K} 