************
* MAX4100 FAMILY MACROMODELS
* -------------------------
* FEATURES:
* 500MHz Unity-Gain Bandwidth
* 5mA Typical Supply Current
* 80mA Output Drive
* 250V/uS Slew Rate
* Available in 8-Pin SO/uMAX 
*
* PART NUMBER    DESCRIPTION
* ___________    ________________________
* MAX4100        500MHz, Low-Power Op Amp  
*
************
*SRC=MAX4100;MAX4100;Opamps;Maxim;
*SYM=ADOPAMP
*
*   ////////////// MAX4100 MACROMODEL //////////////////
*
*   ====>      REFER TO MAX4100 DATA SHEET       <====
*
* connections:          non-inverting input
*                       |       inverting input
*                       |       |       positive power-supply
*                       |       |       |       negative power-supply
*                       |       |       |       |       output
*                       |       |       |       |       |
* OUTPUT CONNECTS:      1       2       99      50      97
*
* FEATURES:
.SUBCKT MAX4100 1 2 99 50 97
* 		INPUT STAGE
Isy 99 50 -9MA
*fixes supply current
IOS 2 1 50N
I1 4 50 14MA
GIN 2 1 2 1 50E-9
*CIN 1 2 .5PF
R1 5 99 7.4
*3.7
R2 6  99 7.4
VOS 1 9 0V
*EOS 1 9 POLY(1) 98 30 0 1
*               ^       OFFSET VOLTAGE
Q1 5 2 400 QX
Q2 6 9 401 QX
RD1 400 4 7.4
RD2 401 4 7.4
Dsub 50 99 DX
*		OUTPUT VOLTAGE LIMITING
V2 99 11 2.03
D1 12 11 DX
D2 10 12 DX
V3 10 50 1.93
*		LEVEL TRANSLATION
EH 99 98 99 50 0.5
*		GAIN, 1ST POLE
*G3 98 12 5 6 0.0352
G3 98 12 5 6 0.0176
R4 12 98 40K
*40K
*C3 98 12 1.4E-11
C3 98 12 .5E-11
*
*		FREQUENCY SHAPING STAGES
*
*		POLE STAGE
G5 98 15 12 98 1E-3 
*D13 50 15 DX
R5 98 15 1E3
*                  ^ POLE AT 130MEGHZ
*c5 98 15 .15E-13
c5 98 15 .15E-12
*
*		OUTPUT STAGE
*
F6 99 50 VA7 1
F5 99 38 VA8 1
D9 40 38 DX
D10 38 99 DX
VA7 99 40 0
*
G12 98 32 15 98 1E-3
*  
R15 98 32 1E3
D3 32 36 DX
D4 37 32 DX
V5 35 37 0v
V4 36 35 0V
R16 34 35 8
E1 99 33 99 32 1
VA8 33 34 0V
L 35 97 200P
*
*		MODELS USED
.MODEL DX D(IS=1E-15)
.MODEL QX NPN(BF=6.25E4)
.ends
************
* MAX4101 FAMILY MACROMODELS
* -------------------------
* FEATURES:
* 200MHz -3dB Bandwidth AVCL=2
* 5mA Typical Supply Current
* 80mA Output Drive
* 250V/uS Slew Rate
* Available in 8-Pin SO/uMAX 
*
* PART NUMBER    DESCRIPTION
* ___________    ________________________
* MAX4101        500MHz, Low-Power Op Amp  
*
************
*SRC=MAX4101;MAX4101;Opamps;Maxim;
*SYM=ADOPAMP
*
*   ////////////// MAX4101 MACROMODEL //////////////////
*
*   ====>      REFER TO MAX4101 DATA SHEET       <====
*
* connections:          non-inverting input
*                       |       inverting input
*                       |       |       positive power-supply
*                       |       |       |       negative power-supply
*                       |       |       |       |       output
*                       |       |       |       |       |
* OUTPUT CONNECTS:      1       2       99      50      97
*
* FEATURES:
.SUBCKT MAX4101 1 2 99 50 97
*		INPUT STAGE
Isy 99 50 -9MA
*fixes supply current
IOS 2 1 50N
I1 4 50 14MA
GIN 2 1 2 1 50E-9
*CIN 1 2 2PF
R1 5 99 7.4
R2 6  99 7.4
VOS 1 9 0V
*EOS 1 9 POLY(1) 98 30 0 1
*               ^       OFFSET VOLTAGE
Q1 5 2 400 QX
Q2 6 9 401 QX
RD1 400 4 7.4
RD2 401 4 7.4
Dsub 50 99 DX
*		OUTPUT VOLTAGE LIMITING
V2 99 11 2.03
D1 12 11 DX
D2 10 12 DX
V3 10 50 1.93
*		LEVEL TRANSLATION
EH 99 98 99 50 0.5
*		GAIN, 1ST POLE
*G3 98 12 5 6 0.0352
G3 98 12 5 6 0.0176
R4 12 98 40K
*40K
*C3 98 12 1.4E-11
C3 98 12 .4E-11
*
*		FREQUENCY SHAPING STAGES
*
*		POLE STAGE
G5 98 15 12 98 1E-3 
*D13 50 15 DX
R5 98 15 1E3
*                  ^ POLE AT 130MEGHZ
*c5 98 15 .15E-13
c5 98 15 .104E-12
*
*		OUTPUT STAGE
F6 99 50 VA7 1
F5 99 38 VA8 1
D9 40 38 DX
D10 38 99 DX
VA7 99 40 0
*
G12 98 32 15 98 1E-3
*
R15 98 32 1E3
D3 32 36 DX
D4 37 32 DX
V5 35 37 0v
V4 36 35 0V
R16 34 35 8
E1 99 33 99 32 1
VA8 33 34 0V
L 35 97 200P
*
*		MODELS USED
.MODEL DX D(IS=1E-15)
.MODEL QX NPN(BF=6.25E4)
.ends
************
* MAX4106 FAMILY MACROMODELS
* -------------------------
* FEATURES:
* 350MHz -3dB Bandwidth
* 15mA Typical Supply Current
* 80mA Output Drive
* 275V/uS Slew Rate
* Available in 8-Pin SO 
*
* PART NUMBER    DESCRIPTION
* ___________    ______________________________
* MAX4106        350MHz, Ultra-Low-Noise Op Amp  
*
************
*SRC=MAX4106;MAX4106;Opamps;Maxim;
*SYM=ADOPAMP
*
*   ////////////// MAX4106 MACROMODEL //////////////////
*
*   ====>      REFER TO MAX4106 DATA SHEET       <====
*
* connections:          non-inverting input
*                       |       inverting input
*                       |       |       positive power-supply
*                       |       |       |       negative power-supply
*                       |       |       |       |       output
*                       |       |       |       |       |
* OUTPUT CONNECTS:      1       2       99      50      97
*
* NOTE OFFSET HAS NOT BEEN ADDED TO THIS MODEL 
*
.SUBCKT MAX4106 1 2 99 50 97
*		INPUT STAGE
*
IOS 2 1 50N
I1 4 50 2MA
GIN 2 1 2 1 50E-9
*CIN 1 2 4PF
G16 0 1 106 0 .87E-3
G19 0 2 109 0 .87E-3
*		VCCS NOISE INPUT CURRENTS
G1 5 99 5 99 38.5E-3
G2 6 99 6 99 38.5E-3
vos 1 3 0v
*EOS 1 3 POLY(1) 98 30 0 .63
*               ^       OFFSET VOLTAGE
*	OFFSET VOLTAGE MUST BE 0V TO PERFORM SMALL-SIGNAL ANALYSIS
*Vn 3 9 0v
EN 3 9 POLY(1) 103 0 0 .70
Q1 5 2 4 QX
Q2 6 9 4 QX
Dsub 50 99 DX
C4 5 6 6PF
*
*		NOISE GENERATORS
*
*		VOLTAGE NOISE GENERATOR
VN1 101 0 2V
VN2 0 102 2V 
DN1 101 103 D1
DN2 103 102 D1
.MODEL D1 D(KF=10E-15 RS=33)
*		CURRENT NOISE GENERATOR + IN
VN3 104 0 2V
VN4 0 105 2V
DN3 104 106 D2
DN4 106 105 D2
*		CURRENT NOISE GENERATOR - IN
VN5 107 0 2V
VN6 0 108 2V
DN5 107 109 D2
DN6 109 108 D2
.MODEL D2 D(KF=30E-16 RS=20)
*
*		SECOND STAGE
IS 99 50 13mA
*         SETS IS ^
*		OUTPUT VOLTAGE LIMITING
V2 99 11 .5
D1 12 11 DX
D2 10 12 DX
V3 10 50 .5
*		LEVEL TRANSLATION
EH 99 98 99 50 0.5
*		GAIN, 1ST POLE
G3 98 12 5 6 27.1E-3
*27.1
*1ST POLE 21HZ,AVOL 1E6
r4 12 98 6254E3
C3 98 12 2.1E-12
*1.78
*    2.32
*		FREQUENCY SHAPING STAGES
*
*		POLE STAGE
*G5 98 15 12 98 1E-3 
*G6 98 15 98 15 1E-3
*D13 50 15 DX
*R5 98 15 1E3
*C5 98 15 2.45E-12
*                  ^ POLE AT 65MEGHZ
*		COMMON-MODE STAGE
G11 98 30 4 98 316E-12
G13 30 98 30 98 1E-3
D11 50 30 DX
*
*		OUTPUT STAGE
F6 99 50 VA7 1
F5 99 38 VA8 1
D9 40 38 DX
D10 38 99 DX
VA7 99 40 0
*
G12 98 32 12 98 1E-3
R15 98 32 1E3
D3 32 36 DX
D4 37 32 DX
V5 35 37 4V
V4 36 35 4V
R16 34 35 30
E1 99 33 99 32 1
VA8 33 34 0V
L 35 96 50P
R17 96 97 20
*
*		MODELS USED
.MODEL DX D(IS=1E-15)
.MODEL QX NPN(BF=55.5)
*BF IS SET FOR FOR INPUT BIAS
.ends
************
* MAX4107 FAMILY MACROMODELS
* -------------------------
* FEATURES:
* 300MHz -3dB Bandwidth
* 15mA Typical Supply Current
* 80mA Output Drive
* 500V/uS Slew Rate
* Available in 8-Pin SO 
*
* PART NUMBER    DESCRIPTION
* ___________    ______________________________
* MAX4107        300MHz, Ultra-Low-Noise Op Amp  
*
************
*SRC=MAX4107;MAX4107;Opamps;Maxim;
*SYM=ADOPAMP
*
*   ////////////// MAX4107 MACROMODEL //////////////////
*
*   ====>      REFER TO MAX4107 DATA SHEET       <====
*
* connections:          non-inverting input
*                       |       inverting input
*                       |       |       positive power-supply
*                       |       |       |       negative power-supply
*                       |       |       |       |       output
*                       |       |       |       |       |
* OUTPUT CONNECTS:      1       2       99      50      97
*
* NOTE OFFSET HAS NOT BEEN ADDED TO THIS MODEL 
*
.SUBCKT MAX4107 1 2 99 50 97
*		INPUT STAGE
*
IOS 2 1 50N
I1 4 50 2MA
GIN 2 1 2 1 50E-9
*CIN 1 2 4PF
G16 0 1 106 0 .87E-3
G19 0 2 109 0 .87E-3
*		VCCS NOISE INPUT CURRENTS
G1 5 99 5 99 38.5E-3
G2 6 99 6 99 38.5E-3
vos 1 3 0v
*EOS 1 3 POLY(1) 98 30 0 .63
*               ^       OFFSET VOLTAGE

*	OFFSET VOLTAGE MUST BE 0V TO PERFORM SMALL-SIGNAL ANALYSIS
*Vn 3 9 0v
EN 3 9 POLY(1) 103 0 0 .7
Q1 5 2 4 QX
Q2 6 9 4 QX
Dsub 50 99 DX
C4 5 6 6.5pF
*
*		NOISE GENERATORS
*
*		VOLTAGE NOISE GENERATOR
VN1 101 0 2V
VN2 0 102 2V 
DN1 101 103 D1
DN2 103 102 D1
.MODEL D1 D(KF=10E-15 RS=33)
*		CURRENT NOISE GENERATOR + IN
VN3 104 0 2V
VN4 0 105 2V
DN3 104 106 D2
DN4 106 105 D2
*		CURRENT NOISE GENERATOR - IN
VN5 107 0 2V
VN6 0 108 2V
DN5 107 109 D2
DN6 109 108 D2
.MODEL D2 D(KF=30E-16 RS=20)
*
*		SECOND STAGE
IS 99 50 13mA
*         SETS IS ^
*		OUTPUT VOLTAGE LIMITING
V2 99 11 .5
D1 12 11 DX
D2 10 12 DX
V3 10 50 .5
*		LEVEL TRANSLATION
EH 99 98 99 50 0.5
*		GAIN, 1ST POLE
G3 98 12 5 6 27.1E-3
*27.1
*1ST POLE 21HZ,AVOL 1E6
r4 12 98 6254E3
C3 98 12 1.65e-12
* 1.3
* 2.6
*		FREQUENCY SHAPING STAGES
*
*		POLE STAGE
*G5 98 15 12 98 1E-3 
*G6 98 15 98 15 1E-3
*D13 50 15 DX
*R5 98 15 1E3
*C5 98 15 2.45E-12
*                  ^ POLE AT 65MEGHZ
*		COMMON-MODE STAGE
G11 98 30 4 98 316E-12
G13 30 98 30 98 1E-3
D11 50 30 DX
*
*		OUTPUT STAGE
F6 99 50 VA7 1
F5 99 38 VA8 1
D9 40 38 DX
D10 38 99 DX
VA7 99 40 0
*
G12 98 32 12 98 1E-3
R15 98 32 1E3
D3 32 36 DX
D4 37 32 DX
V5 35 37 4V
V4 36 35 4V
R16 34 35 30
E1 99 33 99 32 1
VA8 33 34 0V
L 35 96 50P
R17 96 97 20
*
*		MODELS USED
.MODEL DX D(IS=1E-15)
.MODEL QX NPN(BF=55.5)
*BF IS SET FOR FOR INPUT BIAS
.ends
************
* MAX4108 FAMILY MACROMODELS
* -------------------------
* FEATURES:
* 400MHz -3dB Bandwidth
* 20mA Typical Supply Current
* 90mA Output Drive
* 1200V/uS Slew Rate
* Available in 8-Pin SO 
*
* PART NUMBER    DESCRIPTION
* ___________    ___________________________________
* MAX4108        400MHz, Ultra-Low-Distortion Op Amp  
*
************
*SRC=MAX4108;MAX4108;Opamps;Maxim;
*SYM=ADOPAMP
*
*   ////////////// MAX4108 MACROMODEL //////////////////
*
*   ====>      REFER TO MAX4108 DATA SHEET       <====
*
* connections:          non-inverting input
*                       |       inverting input
*                       |       |       positive power-supply
*                       |       |       |       negative power-supply
*                       |       |       |       |       output
*                       |       |       |       |       |
* OUTPUT CONNECTS:      1       2       99      50      97
*
* NOTE OFFSET HAS NOT BEEN ADDED TO THIS MODEL 
*
.SUBCKT MAX4108 1 2 99 50 97
*		INPUT STAGE
*
IOS 2 1 50N
I1 4 50 2MA
GIN 2 1 2 1 50E-9
G1 5 99 5 99 38.5E-3
G2 6 99 6 99 38.5E-3
vos 1 3 0v
*EOS 1 3 POLY(1) 98 30 0 .63
*               ^       OFFSET VOLTAGE

*	OFFSET VOLTAGE MUST BE 0V TO PERFORM SMALL-SIGNAL ANALYSIS
Vn 3 9 0v
*EN 3 9 POLY(1) 103 0 0 .70
Q1 5 2 401 QX
Q2 6 9 402 QX
RDEG1 401 4 208 
RDEG2 402 4 208
Dsub 50 99 DX
*C4 5 6 7PF
*
*		SECOND STAGE
IS 99 50 18mA
*         SETS IS ^
*		OUTPUT VOLTAGE LIMITING
V2 99 11 .5
D1 12 11 DX
D2 10 12 DX
V3 10 50 .5
*		LEVEL TRANSLATION
EH 99 98 99 50 0.5
*		GAIN, 1ST POLE
G3 98 12 5 6 .0042
*27.1
*1ST POLE 21HZ,AVOL 1E6
R4 12 98 2.387E7
C3 98 12 1.72E-13
* 1.667e-12
*   
*		FREQUENCY SHAPING STAGES
*
*		POLE STAGE
G5 98 15 12 98 1E-3 
R5 98 15 1E3
C5 98 15 3.3E-13
*		COMMON-MODE STAGE
G11 98 30 4 98 316E-12
G13 30 98 30 98 1E-3
D11 50 30 DX
*
*		OUTPUT STAGE
F6 99 50 VA7 1
F5 99 38 VA8 1
D9 40 38 DX
D10 38 99 DX
VA7 99 40 0
*
G12 98 32 15 98 1E-3
R15 98 32 1E3
D3 32 36 DX
D4 37 32 DX
V5 35 37 4V
V4 36 35 4V
R16 34 35 30
E1 99 33 99 32 1
VA8 33 34 0V
L 35 96 50P
R17 96 97 20
*
*		MODELS USED
.MODEL DX D(IS=1E-15)
.MODEL QX NPN(BF=83.3)
*BF IS SET FOR FOR INPUT BIAS
.ends
************
* MAX4109 FAMILY MACROMODELS
* -------------------------
* FEATURES:
* 225MHz -3dB Bandwidth AVCL=2V/V
* 20mA Typical Supply Current
* 90mA Output Drive
* 1200V/uS Slew Rate
* Available in 8-Pin SO 
*
* PART NUMBER    DESCRIPTION
* ___________    ___________________________________
* MAX4109        225MHz, Ultra-Low-Distortion Op Amp  
*
************
*SRC=MAX4109;MAX4109;Opamps;Maxim;
*SYM=ADOPAMP
*
*   ////////////// MAX4109 MACROMODEL //////////////////
*
*   ====>      REFER TO MAX4109 DATA SHEET       <====
*
* connections:          non-inverting input
*                       |       inverting input
*                       |       |       positive power-supply
*                       |       |       |       negative power-supply
*                       |       |       |       |       output
*                       |       |       |       |       |
* OUTPUT CONNECTS:      1       2       99      50      97
*
* NOTE OFFSET HAS NOT BEEN ADDED TO THIS MODEL 
*
.SUBCKT MAX4109 1 2 99 50 97
*		INPUT STAGE
*
IOS 2 1 50N
I1 4 50 2MA
GIN 2 1 2 1 50E-9
G1 5 99 5 99 38.5E-3
G2 6 99 6 99 38.5E-3
vos 1 3 0v
*EOS 1 3 POLY(1) 98 30 0 .63
*               ^       OFFSET VOLTAGE

*	OFFSET VOLTAGE MUST BE 0V TO PERFORM SMALL-SIGNAL ANALYSIS
Vn 3 9 0v
*EN 3 9 POLY(1) 103 0 0 .70
Q1 5 2 401 QX
Q2 6 9 402 QX
RDEG1 401 4 208 
RDEG2 402 4 208
Dsub 50 99 DX
*C4 5 6 7PF
*
*		SECOND STAGE
IS 99 50 13mA
*         SETS IS ^
*		OUTPUT VOLTAGE LIMITING
V2 99 11 .5
D1 12 11 DX
D2 10 12 DX
V3 10 50 .5
*		LEVEL TRANSLATION
EH 99 98 99 50 0.5
*		GAIN, 1ST POLE
G3 98 12 5 6 .0042
*27.1
*1ST POLE 21HZ,AVOL 1E6
R4 12 98 2.387E7
C3 98 12 1.36E-13
* 1.667e-12
*   
*		FREQUENCY SHAPING STAGES
*
*		POLE STAGE
G5 98 15 12 98 1E-3 
R5 98 15 1E3
C5 98 15 3.3E-13
*		COMMON-MODE STAGE
G11 98 30 4 98 316E-12
G13 30 98 30 98 1E-3
D11 50 30 DX
*
*		OUTPUT STAGE
F6 99 50 VA7 1
F5 99 38 VA8 1
D9 40 38 DX
D10 38 99 DX
VA7 99 40 0
*
G12 98 32 15 98 1E-3
R15 98 32 1E3
D3 32 36 DX
D4 37 32 DX
V5 35 37 4V
V4 36 35 4V
R16 34 35 30
E1 99 33 99 32 1
VA8 33 34 0V
L 35 96 50P
R17 96 97 20
*
*		MODELS USED
.MODEL DX D(IS=1E-15)
.MODEL QX NPN(BF=83.3)
*BF IS SET FOR FOR INPUT BIAS
.ends
************
* MAX4112 FAMILY MACROMODELS
* -------------------------
* FEATURES:
* 500MHz -3dB Bandwidth
* 300MHz Full-Power Bandwidth
* 5mA Typical Supply Current
* 80mA Output Drive
* 1200V/uS Slew Rate
* Available in 8-Pin SO/uMAX 
*
* PART NUMBER    DESCRIPTION
* ___________    _____________________________
* MAX4112        500MHz, Low-Power Current-Mode 
*                Feedback Amplifiers  
*
************
*SRC=MAX4112;MAX4112;Opamps;Maxim;
*SYM=ADOPAMP
*
*   ////////////// MAX4112 MACROMODEL //////////////////
*
*   ====>      REFER TO MAX4112 DATA SHEET       <====
*
* connections:       non-inverting input
*                    |   inverting input
*                    |   |   positive power supply
*                    |   |   |   negative power supply
*                    |   |   |   |   output
*                    |   |   |   |   |
*                    |   |   |   |   |
.SUBCKT  MAX4112     1   2  99  50  40
ISUPP 99 0 3.73MA
ISUPPN 50 0 -1.73MA
*		INPUT STAGE
I1 99  5 430U
I2  4 50 430U
Q1  50  3 5 QPN
Q2  99  3 4 QNN 
R1   5 6 633
C1   6 99 .63P
R2  4  7 633
C2   7 50 .63P
R3 99  8 633
V1  99 10 .3
RE1 10 30 130
D1  30  8 DX
R4 50  9 633
V2  11 50 .3
RE2 11 31 150
D2   9 31 DX
Q3   8  6 2 QNI
Q4   9  7 2 QPI
R6  1 99 20meg
R7  1 50 20meg
IB1 1 99 3.5UA
IB2 99  2 3.5UA
VOS 3 1 0V
CIN1 1  0 2.5P
CIN2 2  0 2.5P
*
*		SECOND STAGE
*
*		Isup  99 50 4.47M
R8  99 49 1meg
R9  49 50 1meg
V3  99 16 1.755
*		pos swig
D3  15 16 DX
D4  17 15 DX
V4  17 50 1.755
*		neg swing
EH  99 98 99 49 1
G1  98 15 POLY(2) 99 8 50 9 0 1.58E-3 1.58E-3
R5  98 15 2.372MEG
*		1st pole here with r5, and c3
*C3 98 15 .25P
C3 98 15 .176P 
*		POLE STAGE 
*
*Fp=250MHz
G2  98 20 15 49 1E-3
R14 98 20 1K
*C4  98 20 .692P
C4 98 20 .5P
*
*		POLE STAGE	 
*
*Fp=500 MHz
G3  98 21 20 49 1E-3
R15 98 21 1K
*C5  98 21 .03P
*
*		POLE STAGE
*
*Fp=250 MHz
G4  98 22 21 49 1E-3
R16 98 22 1K
*C6  98 22 .346P
*
*		POLE STAGE 
*
*Fp=250 MHz
G5  98 23 22 49 1E-3
R17 98 23 1K
*C7  98 23 .246P
*
*		OUTPUT STAGE
*
F6  99 50 VA7 1
F5  99 35 VA8 1
D7  36 35 DX
VA7 99 36 0
D8  35 99 DX
E1  99 37 99 23 1
VA8 37 38 0
R35 38 40 12
V5  33 40 7V
D5  23 33 DX
V6  40 34 7V
D6  34 23 DX
CF1 40  2 1.8P
*** was 2.1pf
*
*		MODELS USED
*
.MODEL QNI NPN(IS=1E-14 BF=10E4 VAF=15 KF=6.7E-14)
.MODEL QPI PNP(IS=1E-14 BF=10E4 VAF=15 KF=6.7E-14)
.MODEL QNN NPN(IS=1E-14 BF=10E4 VAF=15 KF=4.13E-13)
.MODEL QPN PNP(IS=1E-14 BF=10E4 VAF=15 KF=4.13E-13)
.MODEL DX  D(IS=1E-15)
.MODEL DY  D(IS=1E-17)
.MODEL DN  D(KF=1.667E-9 AF=1 XTI=0 EG=.3)
*
.ENDS
************
* MAX4113 FAMILY MACROMODELS
* -------------------------
* FEATURES:
* 275MHz -3dB Bandwidth
* 250MHz Full-Power Bandwidth
* 5mA Typical Supply Current
* 80mA Output Drive
* 1800V/uS Slew Rate
* Available in 8-Pin SO/uMAX 
*
* PART NUMBER    DESCRIPTION
* ___________    _____________________________
* MAX4113        500MHz, Low-Power Current-Mode 
*                Feedback Amplifiers  
*
************
*SRC=MAX4113;MAX4113;Opamps;Maxim;
*SYM=ADOPAMP
*
*   ////////////// MAX4113 MACROMODEL //////////////////
*
*   ====>      REFER TO MAX4113 DATA SHEET       <====
*
* connections:       non-inverting input
*                    |   inverting input
*                    |   |   positive power supply
*                    |   |   |   negative power supply
*                    |   |   |   |   output
*                    |   |   |   |   |
*                    |   |   |   |   |
.SUBCKT  MAX4113     1   2  99  50  40
*
* NOTE:  MAX4113 MACROMODEL AC ACCURACY DEGRADES AS AVCL EXCEEDS 
*        GAINS OF +11.  FOR CRITICAL HIGH GAIN APPLICATIONS CONTACT
*        AL NEVES 408-263-6423, OR MAXIM APPLICATIONS GROUP.
*        ESSENTIALLY, CAPACITORS C1,C2, C3, AND C7 NEED TO BE SCALED
*        TO MATCH EITHER AV=+20, OR AV=+50 DATA SHEET CURVES FOR
*        MAX4113 CLOSED-LOOP GAIN VS. FREQUENCY.  ALSO NOTE THAT
*        ANY CAPACITIVE LOADS WILL RESULT IN SOME PEAKING WHICH MAY
*        EFFECT THE RESULTS ACCORDINGLY.
*       
*        MOST OF THE AVAILABLE MODELS HAVE THIS LIMITATION - WE 
*        ARE NICE ENOUGH TO INFORM YOU.
*		INPUT STAGE
ISUPP 99 0 3.73MA
ISUPN 50 0 -1.73MA
I1 99  5 430U
I2  4 50 430U
Q1  50  3 5 QPN
Q2  99  3 4 QNN 
R1   5 6 633
C1   6 99 .276P
R2  4  7 633
C2   7 50 .276P
R3 99  8 633
V1  99 10 .3
RE1 10 30 130
D1  30  8 DX
R4 50  9 633
V2  11 50 .3
RE2 11 31 150
D2   9 31 DX
Q3   8  6 2 QNI
Q4   9  7 2 QPI
R6  1 99 20meg
R7  1 50 20meg
IB1 1 99 3.5UA
IB2 99  2 3.5UA
VOS 3 1 0V
CIN1 1  0 1P
CIN2 2  0 1P
*
*		SECOND STAGE
*
*		Isup  99 50 4.47M
R8  99 49 1meg
R9  49 50 1meg
V3  99 16 1.755
*pos swig
D3  15 16 DX
D4  17 15 DX
V4  17 50 1.755
*neg swing
EH  99 98 99 49 1
G1  98 15 POLY(2) 99 8 50 9 0 1.58E-3 1.58E-3
R5  98 15 2.372MEG
*		 1st pole here with r5, and c3
C3  98 15 .174P
*		POLE STAGE
*
*Fp=250MHz
G2  98 20 15 49 1E-3
R14 98 20 1K
*C4  98 20 .632P
*
*		POLE STAGE
*
*Fp=500 MHz
G3  98 21 20 49 1E-3
R15 98 21 1K
*C5  98 21 .03P
*
*		POLE STAGE
*
*Fp=250 MHz
G4  98 22 21 49 1E-3
R16 98 22 1K
*C6  98 22 .3P
*
*		POLE STAGE
*
*Fp=125 MHz
G5  98 23 22 49 1E-3
R17 98 23 1K
C7  98 23 .99P

*
*		OUTPUT STAGE
*
F6  99 50 VA7 1
F5  99 35 VA8 1
D7  36 35 DX
VA7 99 36 0
D8  35 99 DX
E1  99 37 99 23 1
VA8 37 38 0
R35 38 40 12
V5  33 40 1.7V
*7V
D5  23 33 DX
V6  40 34 1.7V
D6  34 23 DX
CF1 40  2 1.19P
*** was 1.8pf
*
*		MODELS USED
*
.MODEL QNI NPN(IS=1E-14 BF=10E4 VAF=15 KF=6.7E-14)
.MODEL QPI PNP(IS=1E-14 BF=10E4 VAF=15 KF=6.7E-14)
.MODEL QNN NPN(IS=1E-14 BF=10E4 VAF=15 KF=4.13E-13)
.MODEL QPN PNP(IS=1E-14 BF=10E4 VAF=15 KF=4.13E-13)
.MODEL DX  D(IS=1E-15)
.MODEL DY  D(IS=1E-17)
.MODEL DN  D(KF=1.667E-9 AF=1 XTI=0 EG=.3)
*
.ENDS
************
* MAX4122 FAMILY MACROMODELS
* -------------------------
* FEATURES:
* 5MHz Gain Bandwidth Product
* 650uA Typical Supply Current
* Drive 250 Ohm Loads
* Unity-Gain Stable
* Rail-to-Rail I/O
* Available in 5-Pin SOT23-5 (MAX4122)
*              8-Pin SO/uMAX (MAX4126)
*             14-Pin SO (MAX4129) 
*
* PART NUMBER    DESCRIPTION
* ___________    ______________________________
* MAX4122        Single 5MHz, Unity-Gain Stable
* MAX4126        Dual 5MHz, Unity-Gain Stable
* MAX4129        Quad 5MHz, Unity-Gain Stable  
*
************
*SRC=MAX4122;MAX4122;Opamps;Maxim;
*SYM=ADOPAMP
*
*   ////////////// MAX4122 MACROMODEL //////////////////
*
*   ====>      REFER TO MAX4122 DATA SHEET       <====
*
* connections:        non-inverting input
*                     |   inverting input
*                     |   |   positive power-supply
*                     |   |   |   negative power-supply
*                     |   |   |   |   output
*                     |   |   |   |   |
* OUTPUT CONNECTS:    1   2   99  50  97
*
*
.SUBCKT MAX4122 1 2 99 50 97
*		INPUT STAGE
I1 99 4 .5e-3
IBIASE 1 2 50NA
M1   5  2 4 99 MOSFET
R3   5 50 2828
M2   6  7 4 99 MOSFET
R4   6 50 2828
CI1  1  0 2P
CI2  2  0 2P
DP1  1 99 DA
DP2 50  1 DA
DP3  2 99 DB
DP4 50  2 DB
*
*		GAIN, 1ST POLE, SLEW STAGE
EH 99 98 99 50 0.5
G0  98  9 5 6 7.87e-3
VB 9 10 0V 
R0  98  9 127E3
C3 10 98 6.5e-10
*C3 10 98 1.3E-10
*
D107 10 99 Dp 
D103 10 100 Dp
D104 100 99 Dp
F100 100 99 POLY(1) VB -1.2MA 1
*
D108 50 10 Dp
D105 101 10 Dp
D106 50 101 Dp
F2 50 101 POLY(1) VB -1.2MA -1
*
D1 9 111 DP
D2 112 9 DP
V11 99 111 50MV
V12 112 50 50MV
*
I2 99 50 300U
VOS 7 1 0v
*CHANGE OFFSET VOLTAGE TO 0V FOR OPEN-LOOP, OTHERWISE VOS
*		COMMON-MODE ZERO STAGE
*		 POLE STAGE
G3 98 15 10 98 1E-3
R12 98 15 1E3
*
*		 change for second pole
C5 98 15 12p
* was 8pf
*  
*		OUTPUT STAGE
F5 99 38 VA8 1
D9 40 38 DX
D10 38 99 DX
VA7 99 40 0
G12 98 32 15 98 1E-6
*                ^ INSERT NODE FROM LAST STAGE HERE
R15 98 32 1E6
*D3 32 36 Dx
*D4 37 32 Dx
*V5 34 37  .3V
*V4 36 34  -.3V
*** V5,V4 SET ISC
R16 34 97 10
E1 99 33 99 32 1
VA8 33 34 0V
*RCON 35 97 15k
*
.MODEL DA D(IS=100E-14 RS=.5K)
.MODEL DB D(IS=100E-14 RS=.5K)
.MODEL DX D(IS=100E-14)
.MODEL Dp D(N=0.05)
.MODEL MOSFET PMOS(VTO=0 KP=1.8E-3)
*VTO ESTABLISHES INPUT VOLT. RANGE  , was -1.7
*
.ENDS
************
*SRC=MAX4126;MAX4126;Opamps;Maxim;
*SYM=ADOPAMP
*
*   ////////////// MAX4126 MACROMODEL //////////////////
*
*   ====>      REFER TO MAX4126 DATA SHEET       <====
*
* connections:        non-inverting input
*                     |   inverting input
*                     |   |   positive power-supply
*                     |   |   |   negative power-supply
*                     |   |   |   |   output
*                     |   |   |   |   |
* OUTPUT CONNECTS:    1   2   99  50  97
*
*
.SUBCKT MAX4126 1 2 99 50 97
*		INPUT STAGE
I1 99 4 .5e-3
IBIASE 1 2 50NA
M1   5  2 4 99 MOSFET
R3   5 50 2828
M2   6  7 4 99 MOSFET
R4   6 50 2828
CI1  1  0 2P
CI2  2  0 2P
DP1  1 99 DA
DP2 50  1 DA
DP3  2 99 DB
DP4 50  2 DB
*
*		 GAIN, 1ST POLE, SLEW STAGE
EH 99 98 99 50 0.5
G0  98  9 5 6 7.87e-3
VB 9 10 0V 
R0  98  9 127E3
C3 10 98 6.5e-10
*C3 10 98 1.3E-10
*
D107 10 99 Dp 
D103 10 100 Dp
D104 100 99 Dp
F100 100 99 POLY(1) VB -1.2MA 1
*
D108 50 10 Dp
D105 101 10 Dp
D106 50 101 Dp
F2 50 101 POLY(1) VB -1.2MA -1
*
D1 9 111 DP
D2 112 9 DP
V11 99 111 50MV
V12 112 50 50MV
*
I2 99 50 300U
VOS 7 1 0v
*CHANGE OFFSET VOLTAGE TO 0V FOR OPEN-LOOP, OTHERWISE VOS
*		COMMON-MODE ZERO STAGE
*		 POLE STAGE
G3 98 15 10 98 1E-3
R12 98 15 1E3
*
*		 change for second pole
C5 98 15 12p
* was 8pf
*  
*		OUTPUT STAGE
F5 99 38 VA8 1
D9 40 38 DX
D10 38 99 DX
VA7 99 40 0
G12 98 32 15 98 1E-6
*                ^ INSERT NODE FROM LAST STAGE HERE
R15 98 32 1E6
*D3 32 36 Dx
*D4 37 32 Dx
*V5 34 37  .3V
*V4 36 34  -.3V
*** V5,V4 SET ISC
R16 34 97 10
E1 99 33 99 32 1
VA8 33 34 0V
*RCON 35 97 15k
*
.MODEL DA D(IS=100E-14 RS=.5K)
.MODEL DB D(IS=100E-14 RS=.5K)
.MODEL DX D(IS=100E-14)
.MODEL Dp D(N=0.05)
.MODEL MOSFET PMOS(VTO=0 KP=1.8E-3)
*VTO ESTABLISHES INPUT VOLT. RANGE  , was -1.7
*
.ENDS
************
*SRC=MAX4129;MAX4129;Opamps;Maxim;
*SYM=ADOPAMP
*
*   ////////////// MAX4129 MACROMODEL //////////////////
*
*   ====>      REFER TO MAX4129 DATA SHEET       <====
*
* connections:        non-inverting input
*                     |   inverting input
*                     |   |   positive power-supply
*                     |   |   |   negative power-supply
*                     |   |   |   |   output
*                     |   |   |   |   |
* OUTPUT CONNECTS:    1   2   99  50  97
*
*
.SUBCKT MAX4129 1 2 99 50 97
*		INPUT STAGE
I1 99 4 .5e-3
IBIASE 1 2 50NA
M1   5  2 4 99 MOSFET
R3   5 50 2828
M2   6  7 4 99 MOSFET
R4   6 50 2828
CI1  1  0 2P
CI2  2  0 2P
DP1  1 99 DA
DP2 50  1 DA
DP3  2 99 DB
DP4 50  2 DB
*
*		 GAIN, 1ST POLE, SLEW STAGE
EH 99 98 99 50 0.5
G0  98  9 5 6 7.87e-3
VB 9 10 0V 
R0  98  9 127E3
C3 10 98 6.5e-10
*C3 10 98 1.3E-10
*
D107 10 99 Dp 
D103 10 100 Dp
D104 100 99 Dp
F100 100 99 POLY(1) VB -1.2MA 1
*
D108 50 10 Dp
D105 101 10 Dp
D106 50 101 Dp
F2 50 101 POLY(1) VB -1.2MA -1
*
D1 9 111 DP
D2 112 9 DP
V11 99 111 50MV
V12 112 50 50MV
*
I2 99 50 300U
VOS 7 1 0v
*CHANGE OFFSET VOLTAGE TO 0V FOR OPEN-LOOP, OTHERWISE VOS
*		COMMON-MODE ZERO STAGE
*		POLE STAGE
G3 98 15 10 98 1E-3
R12 98 15 1E3
*
*		change for second pole
C5 98 15 12p
* was 8pf
*  
*		OUTPUT STAGE
F5 99 38 VA8 1
D9 40 38 DX
D10 38 99 DX
VA7 99 40 0
G12 98 32 15 98 1E-6
*                ^ INSERT NODE FROM LAST STAGE HERE
R15 98 32 1E6
*D3 32 36 Dx
*D4 37 32 Dx
*V5 34 37  .3V
*V4 36 34  -.3V
*** V5,V4 SET ISC
R16 34 97 10
E1 99 33 99 32 1
VA8 33 34 0V
*RCON 35 97 15k
*
.MODEL DA D(IS=100E-14 RS=.5K)
.MODEL DB D(IS=100E-14 RS=.5K)
.MODEL DX D(IS=100E-14)
.MODEL Dp D(N=0.05)
.MODEL MOSFET PMOS(VTO=0 KP=1.8E-3)
*VTO ESTABLISHES INPUT VOLT. RANGE  , was -1.7
*
.ENDS
************
* MAX4124 FAMILY MACROMODELS
* -------------------------
* FEATURES:
* 25MHz Gain Bandwidth Product
* 650uA Typical Supply Current
* Drive 250 Ohm Loads
* Stable at Gains >=10V/V
* Rail-to-Rail I/O
* Available in 5-Pin SOT23-5 (MAX4124)
*              8-Pin SO/uMAX (MAX4128)
*
* PART NUMBER    DESCRIPTION
* ___________    ______________________________
* MAX4124        Single 25MHz, Stable Av=10V/V
* MAX4128        Dual 25MHz, Stable Av=10V/V
*
************
*SRC=MAX4124;MAX4124;Opamps;Maxim;
*SYM=ADOPAMP
*
*   ////////////// MAX4124 MACROMODEL //////////////////
*
*   ====>      REFER TO MAX4124 DATA SHEET       <====
*
* connections:        non-inverting input
*                     |   inverting input
*                     |   |   positive power-supply
*                     |   |   |   negative power-supply
*                     |   |   |   |   output
*                     |   |   |   |   |
* OUTPUT CONNECTS:    1   2   99  50  97
*
*
.SUBCKT MAX4124 1 2 99 50 97
*		INPUT STAGE
I1 99 4 .5e-3
IBIASE 1 2 50NA
M1   5  2 4 99 MOSFET
R3   5 50 2828
M2   6  7 4 99 MOSFET
R4   6 50 2828
CI1  1  0 2P
CI2  2  0 2P
DP1  1 99 DA
DP2 50  1 DA
DP3  2 99 DB
DP4 50  2 DB
*
*		 GAIN, 1ST POLE, SLEW STAGE
EH 99 98 99 50 0.5
G0  98  9 5 6 7.87e-3
VB 9 10 0V 
R0  98  9 127E3
C3 10 98 1.3e-10E5
*C3 10 98 1.3E-10
*
D107 10 99 Dp 
D103 10 100 Dp
D104 100 99 Dp
F100 100 99 POLY(1) VB -1.2MA 1
*
D108 50 10 Dp
D105 101 10 Dp
D106 50 101 Dp
F2 50 101 POLY(1) VB -1.2MA -1
*
D1 9 111 DP
D2 112 9 DP
V11 99 111 50MV
V12 112 50 50MV
*
I2 99 50 300U
VOS 7 1 0v
*CHANGE OFFSET VOLTAGE TO 0V FOR OPEN-LOOP, OTHERWISE VOS
*		COMMON-MODE ZERO STAGE
*		 POLE STAGE
G3 98 15 10 98 1E-3
R12 98 15 1E3
*
*		 change for second pole
C5 98 15 8P
* was 2.4pf
*  
*		OUTPUT STAGE
F5 99 38 VA8 1
D9 40 38 DX
D10 38 99 DX
VA7 99 40 0
G12 98 32 15 98 1E-6
*                ^ INSERT NODE FROM LAST STAGE HERE
R15 98 32 1E6
*D3 32 36 Dx
*D4 37 32 Dx
*V5 34 37  .3V
*V4 36 34  -.3V
*** V5,V4 SET ISC
R16 34 97 10
E1 99 33 99 32 1
VA8 33 34 0V
*RCON 35 97 15k
*
.MODEL DA D(IS=100E-14 RS=.5K)
.MODEL DB D(IS=100E-14 RS=.5K)
.MODEL DX D(IS=100E-14)
.MODEL Dp D(N=0.05)
.MODEL MOSFET PMOS(VTO=0 KP=1.8E-3)
*VTO ESTABLISHES INPUT VOLT. RANGE  , was -1.7
*
.ENDS
************
*SRC=MAX4128;MAX4128;Opamps;Maxim;
*SYM=ADOPAMP
*
*   ////////////// MAX4128 MACROMODEL //////////////////
*
*   ====>      REFER TO MAX4128 DATA SHEET       <====
*
* connections:        non-inverting input
*                     |   inverting input
*                     |   |   positive power-supply
*                     |   |   |   negative power-supply
*                     |   |   |   |   output
*                     |   |   |   |   |
* OUTPUT CONNECTS:    1   2   99  50  97
*
*
.SUBCKT MAX4128 1 2 99 50 97
*		INPUT STAGE
I1 99 4 .5e-3
IBIASE 1 2 50NA
M1   5  2 4 99 MOSFET
R3   5 50 2828
M2   6  7 4 99 MOSFET
R4   6 50 2828
CI1  1  0 2P
CI2  2  0 2P
DP1  1 99 DA
DP2 50  1 DA
DP3  2 99 DB
DP4 50  2 DB
*
*		 GAIN, 1ST POLE, SLEW STAGE
EH 99 98 99 50 0.5
G0  98  9 5 6 7.87e-3
VB 9 10 0V 
R0  98  9 127E3
C3 10 98 1.3e-10E5
*C3 10 98 1.3E-10
*
D107 10 99 Dp 
D103 10 100 Dp
D104 100 99 Dp
F100 100 99 POLY(1) VB -1.2MA 1
***
D108 50 10 Dp
D105 101 10 Dp
D106 50 101 Dp
F2 50 101 POLY(1) VB -1.2MA -1
*
D1 9 111 DP
D2 112 9 DP
V11 99 111 50MV
V12 112 50 50MV
*
I2 99 50 300U
VOS 7 1 0v
*CHANGE OFFSET VOLTAGE TO 0V FOR OPEN-LOOP, OTHERWISE VOS
*		COMMON-MODE ZERO STAGE
*		 POLE STAGE
G3 98 15 10 98 1E-3
R12 98 15 1E3
*
*		 change for second pole
C5 98 15 8P
* was 2.4pf
*  
*		OUTPUT STAGE
F5 99 38 VA8 1
D9 40 38 DX
D10 38 99 DX
VA7 99 40 0
G12 98 32 15 98 1E-6
*                ^ INSERT NODE FROM LAST STAGE HERE
R15 98 32 1E6
*D3 32 36 Dx
*D4 37 32 Dx
*V5 34 37  .3V
*V4 36 34  -.3V
*** V5,V4 SET ISC
R16 34 97 10
E1 99 33 99 32 1
VA8 33 34 0V
*RCON 35 97 15k
*
.MODEL DA D(IS=100E-14 RS=.5K)
.MODEL DB D(IS=100E-14 RS=.5K)
.MODEL DX D(IS=100E-14)
.MODEL Dp D(N=0.05)
.MODEL MOSFET PMOS(VTO=0 KP=1.8E-3)
*VTO ESTABLISHES INPUT VOLT. RANGE  , was -1.7
*
.ENDS
************
* MAX4130 FAMILY MACROMODELS
* -------------------------
* FEATURES:
* 10MHz Gain Bandwidth Product
* 900uA Typical Supply Current
* Drive 250 Ohm Loads
* Unity-Gain Stable
* Rail-to-Rail I/O
* Available in 5-Pin SOT23-5 (MAX4130)
*              8-Pin SO/uMAX (MAX4132)
*             14-Pin SO (MAX4134) 
*
* PART NUMBER    DESCRIPTION
* ___________    ______________________________
* MAX4130        Single 10MHz, Unity-Gain Stable
* MAX4132        Dual 10MHz, Unity-Gain Stable
* MAX4134        Quad 10MHz, Unity-Gain Stable  
*
************
*SRC=MAX4130;MAX4130;Opamps;Maxim;
*SYM=ADOPAMP
*
*   ////////////// MAX4130 MACROMODEL //////////////////
*
*   ====>      REFER TO MAX4130 DATA SHEET       <====
*
* connections:        non-inverting input
*                     |   inverting input
*                     |   |   positive power-supply
*                     |   |   |   negative power-supply
*                     |   |   |   |   output
*                     |   |   |   |   |