**********
* Copyright Intusoft 1988-1997
* All Rights Reserved
**********
**********
DMOS Models made using the SpiceMod Modeling Program
Copyright Intusoft 1994
All Rights Reserved
**********
*SRC=SD5000;SD5000;MOSFETs N;Gen. Purpose;20V 50mA 
.MODEL SD5000 NMOS (LEVEL=1 VTO=.98 KP=6.25M GAMMA=.868
+ PHI=.75 LAMBDA=39M RD=47 RS=40 IS=25F PB=.8 MJ=.46
+ CBD=2.98P CBS=3.75P CGSO=2.4N CGDO=2N CGBO=20.6N)
*   -- Assumes default L=100U W=100U --
*  20 Volt  50M Amp  40 ohm  Enh-Mode N-Channel MOSFET  02-05-1993
* Siliconix
**********
*SRC=SD5001;SD5001;MOSFETs N;Gen. Purpose;10V 50mA 
.MODEL SD5001 NMOS (LEVEL=1 VTO=.98 KP=6.25M GAMMA=.868
+ PHI=.75 LAMBDA=52M RD=47 RS=40 IS=25F PB=.8 MJ=.46
+ CBD=2.98P CBS=3.75P CGSO=2.4N CGDO=2N CGBO=20.6N)
*  10 Volt  50M Amp  40 ohm  Enh-Mode N-Channel MOSFET  02-05-1993
* Siliconix
**********
*SRC=SD5002;SD5002;MOSFETs N;Gen. Purpose;15V 50mA 
.MODEL SD5002 NMOS (LEVEL=1 VTO=.98 KP=6.25M GAMMA=.868
+ PHI=.75 LAMBDA=45M RD=47 RS=40 IS=25F PB=.8 MJ=.46
+ CBD=2.98P CBS=3.75P CGSO=2.4N CGDO=2N CGBO=20.6N)
*  15 Volt  50M Amp  40 ohm  Enh-Mode N-Channel MOSFET  02-05-1993
* Siliconix
**********
*SRC=SD5400;SD5400;MOSFETs N;Gen. Purpose;20V 50mA 
.MODEL SD5400 NMOS (LEVEL=1 VTO=1 KP=6.05M GAMMA=1.24
+ PHI=.75 LAMBDA=5.21M RD=14.9 RS=29.25 IS=25F PB=.8 MJ=.46
+ CBD=3.55P CBS=4.26P CGSO=2.4N CGDO=2N CGBO=20.6N)
*   -- Assumes default L=100U W=100U --
*  20 Volt  50M Amp  35 ohm  Enh-Mode N-Channel MOSFET  08-30-1994
**********
*SRC=SD5401;SD5401;MOSFETs N;Gen. Purpose;10V 50mA 
.MODEL SD5401 NMOS (LEVEL=1 VTO=1 KP=6.05M GAMMA=1.24
+ PHI=.75 LAMBDA=25.21M RD=14.9 RS=29.25 IS=25F PB=.8 MJ=.46
+ CBD=3.55P CBS=4.26P CGSO=2.4N CGDO=2N CGBO=20.6N)
*   -- Assumes default L=100U W=100U --
*  10 Volt  50M Amp  35 ohm  Enh-Mode N-Channel MOSFET  08-30-1994
**********
*SRC=SD5402;SD5402;MOSFETs N;Gen. Purpose;15V 50mA 
.MODEL SD5402 NMOS (LEVEL=1 VTO=1 KP=6.05M GAMMA=1.24
+ PHI=.75 LAMBDA=15.21M RD=14.9 RS=29.25 IS=25F PB=.8 MJ=.46
+ CBD=3.55P CBS=4.26P CGSO=2.4N CGDO=2N CGBO=20.6N)
*   -- Assumes default L=100U W=100U --
*  15 Volt  50M Amp  35 ohm  Enh-Mode N-Channel MOSFET  08-30-1994
**********
*SRC=SD2100;SD2100;MOSFETs N;Depletion;25V 50mA 
.MODEL SD2100 NMOS (LEVEL=1 VTO=-1.5 KP=8.64M GAMMA=1.86
+ PHI=.75 LAMBDA=11.8M RD=1.2 RS=18 IS=25F PB=.8 MJ=.46
+ CBD=11.5P CBS=13.9P CGSO=12N CGDO=10N CGBO=28N)
*   -- Assumes default L=100U W=100U --
*  25 Volt  50M Amp  50 ohm  Dep-Mode N-Channel MOSFET  08-30-1994
**********
*SRC=SST211;SST211;MOSFETs N;Switching;10V .05A
.MODEL SST211 NMOS (LEVEL=1 VTO=0.80 KP=1.00E-02 GAMMA=5.00E-06
+ PHI=0.75 LAMBDA=1.40E-02 RD=3.00E+01 RS=3.60E+01 IS=3.25E-14
+ CBD=5.13E-12 CBS=6.16E-12 PB=0.80 MJ=.46 TOX=3.00E-07
+ CGSO=3.60E-09 CGDO=3.00E-09 CGBO=2.34E-08)
*  10 Volt   0.050 Amp  50.000 ohm  Enh-Mode N-Channel MOS-FET  05-25-1990
* Siliconix
**********
*SRC=SST215;SST215;MOSFETs N;Switching;20V .05A
.MODEL SST215 NMOS (LEVEL=1 VTO=0.80 KP=1.00E-02 GAMMA=1.08E-06
+ PHI=0.75 LAMBDA=1.40E-02 RD=3.00E+01 RS=3.60E+01 IS=1.12E-14
+ CBD=5.13E-12 CBS=6.16E-12 PB=0.80 MJ=.46
+ CGSO=3.60E-09 CGDO=3.00E-09 CGBO=2.34E-08)
*  20 Volt   0.050 Amp  50.000 ohm  Enh-Mode N-Channel MOS-FET  05-25-1990
* Siliconix
**********
*SRC=VN10KM;VN10KM;MOSFETs N;Gen. Purpose;60V 0.31A
.MODEL VN10KM NMOS (LEVEL=1 VTO=1.40 KP=1.55E-01 GAMMA=1.11E-06
+ PHI=0.75 LAMBDA=2.90E-04 RD=7.60E-01 RS=7.60E-01 IS=6.46E-14
+ CBD=3.28E-11 CBS=3.94E-11 PB=0.80 MJ=.46
+ CGSO=2.40E-08 CGDO=2.00E-08 CGBO=3.36E-07)
*  60 Volt   0.310 Amp   4.000 ohm  Enh-Mode N-Channel MOS-FET  05-25-1990
* Siliconix
**********
*SRC=VP0610E;VP0610E;MOSFETs P;Gen. Purpose;60V .25A
.MODEL VP0610E PMOS (LEVEL=1 VTO=-2.00 KP=9.07E-03 GAMMA=1.59E-06
+ PHI=0.75 LAMBDA=3.60E-04 RS=2.25E-01 IS=3.01E-14
+ CBD=2.05E-11 CBS=2.46E-11 PB=0.80 MJ=.46
+ CGSO=3.60E-08 CGDO=3.00E-08 CGBO=8.40E-08)
*  60 Volt   0.250 Amp   8.000 ohm  Enh-Mode P-Channel MOS-FET  05-25-1990
* Siliconix
**********
*SRC=VP0610L;VP0610L;MOSFETs P;Gen. Purpose;60V .18A
.MODEL VP0610L PMOS (LEVEL=1 VTO=-2.00 KP=9.07E-03 GAMMA=1.60E-06
+ PHI=0.75 LAMBDA=5.00E-04 RS=2.25E-01 IS=2.75E-14
+ CBD=2.05E-11 CBS=2.46E-11 PB=0.80 MJ=.46
+ CGSO=3.60E-08 CGDO=3.00E-08 CGBO=8.40E-08)
*  60 Volt   0.180 Amp   8.000 ohm  Enh-Mode P-Channel MOS-FET  05-25-1990
* Siliconix
**********
*SRC=VP0610T;VP0610T;MOSFETs P;Gen. Purpose;60V .12A
.MODEL VP0610T PMOS (LEVEL=1 VTO=-2.30 KP=9.5E-03 GAMMA=1.63E-06
+ PHI=0.75 LAMBDA=7.50E-04 RS=2.25E-01 IS=2.50E-14
+ CBD=2.05E-11 CBS=2.46E-11 PB=0.80 MJ=.46
+ CGSO=3.60E-08 CGDO=3.00E-08 CGBO=8.40E-08)
*  60 Volt   0.120 Amp   6.000 ohm  Enh-Mode P-Channel MOS-FET  05-25-1990
* Siliconix
**********
*SRC=MPF990;MPF990;MOSFETs N;Switching;90V 2A
.MODEL MPF990 NMOS (LEVEL=1 VTO=2.00 KP=3.20E-01 GAMMA=7.29E-07
+ PHI=0.75 LAMBDA=4.50E-05 RS=1.42E+00 IS=2.78E-13
+ CBD=1.50E-10 CBS=1.80E-10 PB=0.80 MJ=.46
+ CGSO=1.56E-07 CGDO=1.30E-07 CGBO=3.14E-07)
*  90 Volt   2.000 Amp   1.200 ohm  Enh-Mode N-Channel MOS-FET  05-29-1990
* Motorola
**********
*SRC=2N7000;MN7000;MOSFETs N;Gen. Purpose;60V .2A
.MODEL MN7000 NMOS (LEVEL=1 VTO=2.4 KP=.17 GAMMA=1.76U
+ PHI=.75 LAMBDA=1.25M RD=.35 RS=.448 IS=41.6F PB=.8 MJ=.46
+ CBD=44.4P CBS=53.3P CGSO=24N CGDO=20N CGBO=116N)
*   -- Assumes default L=100U W=100U --
*   60 Volt  .2 Amp  2.5 ohm Enh-Mode N-Channel MOS-FET  11-19-1990
**********
*SRC=VN10LE;VN10LE;MOSFETs N;Gen. Purpose;60V .38A
.MODEL VN10LE NMOS (LEVEL=1 VTO=1.8 KP=.3 GAMMA=2.01U
+ PHI=.75 LAMBDA=1.25M RD=1.65 RS=1.35 IS=79.1F PB=.8 MJ=.46 AF=1
+ CBD=69.2P CBS=83P CGSO=36N CGDO=30N CGBO=334N)
*   -- Assumes default L=100U W=100U --
*   60 Volt  .38 Amp  2.5 ohm Enh-Mode N-Channel MOS-FET  02-11-1993
*   Siliconix
**********
*SRC=VN0610LL;VN0610LL;MOSFETs N;Gen. Purpose;60V .28A
.MODEL VN0610LL NMOS (LEVEL=1 VTO=1.95 KP=.2 GAMMA=2.01U
+ PHI=.75 LAMBDA=1.25M RD=1.05 RS=.85 IS=66.6F PB=.8 MJ=.46 AF=1
+ CBD=44.3P CBS=50.8P CGSO=24N CGDO=20N CGBO=256N KF=2.2E-18)
*   -- Assumes default L=100U W=100U --
*   60 Volt  .16 Amp  2.5 ohm Enh-Mode N-Channel MOS-FET  02-12-1993
*   Siliconix
**********
*SRC=VN10KE;VN10KE;MOSFETs N;Gen. Purpose;60V .17A
.MODEL VN10KE NMOS (LEVEL=1 VTO=2.3 KP=.27 GAMMA=2.17U
+ PHI=.75 LAMBDA=1.25M RD=1.7 RS=1.1 IS=35.4F PB=.8 MJ=.46
+ CBD=69.2P CBS=83P CGSO=36N CGDO=30N CGBO=334N)
*   -- Assumes default L=100U W=100U --
*   60 Volt  .2 Amp  5 ohm Enh-Mode N-Channel MOS-FET  02-11-1993
*   Siliconix
**********
*SRC=VN10LM;VN10LM;MOSFETs N;Gen. Purpose;60V .32A
.MODEL VN10LM NMOS (LEVEL=1 VTO=2.4 KP=.2 GAMMA=2.01U 
+ PHI=.75 LAMBDA=1.25M RD=1.822 RS=1.322 IS=58.3F PB=.8 MJ=.46 AF=1
+ CBD=69.2P CBS=83P CGSO=36N CGDO=30N CGBO=334N)
*   -- Assumes default L=100U W=100U --
*   60 Volt  .3 Amp  5 ohm Enh-Mode N-Channel MOS-FET  02-11-1993
*   Siliconix
**********
*SRC=VN0610L;VN0610L;MOSFETs N;Gen. Purpose;60V .27A
.MODEL VN0610L NMOS (LEVEL=1 VTO=2.3 KP=.27 GAMMA=1.17U
+ PHI=.75 LAMBDA=1.25M RD=1.8 RS=1.8 IS=56.2F PB=.8 MJ=.46
+ CBD=14.4P CBS=53.3P CGSO=1.9U CGDO=20N CGBO=116N)
*   -- Assumes default L=100U W=100U --
*   60 Volt  .2 Amp  5 ohm Enh-Mode N-Channel MOS-FET  04-09-1991
*   Siliconix
**********
*SRC=VN0605T;VN0605T;MOSFETs N;Gen. Purpose;60V .18A
.MODEL VN0605T NMOS (LEVEL=1 VTO=1.9 KP=.142 GAMMA=2.35
+ PHI=.75 LAMBDA=1.25M RD=.7 RS=.7 IS=90F PB=.8 MJ=.46
+ CBD=71.2P CBS=85.4P CGSO=40.2N CGDO=38.5N CGBO=96.3N)
*   -- Assumes default L=100U W=100U --
*  60 Volt  .18 Amp  5 ohm  Enh-Mode N-Channel MOSFET  03-26-1993
**********
*SRC=BS107;BS107;MOSFETs N;Switching;200V .12A
.MODEL BS107 NMOS (LEVEL=1 VTO=2.5 KP=.48 GAMMA=166N
+ PHI=.75 LAMBDA=375U RD=2.1 RS=2.1 IS=15.6F PB=.8 MJ=.46
+ CBD=118P CBS=142P CGSO=72N CGDO=60N CGBO=468N)
*   -- Assumes default L=100U W=100U --
*   200 Volt  .25 Amp  15 ohm Enh-Mode N-Channel MOS-FET  04-08-1991
*   Siliconix
**********
*SRC=BS107A;BS107A;MOSFETs N;Switching;200V .25A
.MODEL BS107A NMOS (LEVEL=1 VTO=2.5 KP=.48 GAMMA=166N
+ PHI=.75 LAMBDA=375U RD=.63 RS=.63 IS=15.6F PB=.8 MJ=.46
+ CBD=118P CBS=142P CGSO=72N CGDO=60N CGBO=468N)
*   -- Assumes default L=100U W=100U --
*   200 Volt  .25 Amp  4.5 ohm Enh-Mode N-Channel MOS-FET  04-08-1991
*   Siliconix
**********
*SRC=BS208;BS208;MOSFETs P;Gen. Purpose;200V 0.2A
.MODEL BS208 PMOS (LEVEL=1 VTO=-1.9 KP=10M GAMMA=143N
+ PHI=.75 LAMBDA=375U RD=1.4 RS=1.4 IS=12.5F PB=.8 MJ=.46
+ CBD=262.6P CBS=75.1P CGSO=6.8U CGDO=110N CGBO=158N)
*   -- Assumes default L=100U W=100U --
*   200 Volt  .2 Amp  10 ohm Enh-Mode P-Channel MOS-FET  04-09-1991
*   Siliconix
**********
*SRC=BS250;BS250;MOSFETs P;Gen. Purpose;45V 0.18A
.MODEL BS250 PMOS (LEVEL=1 VTO=-2 KP=.125 GAMMA=2.98U
+ PHI=.75 LAMBDA=1.66M RD=.84 RS=.84 IS=50F PB=.8 MJ=.46
+ CBD=43.0P CBS=51.6P CGSO=84N CGDO=70N CGBO=26N)
*   -- Assumes default L=100U W=100U --
*   45 Volt  .18 Amp  6 ohm Enh-Mode P-Channel MOS-FET  04-09-1991
*   Siliconix
**********
*SRC=VN0300B;VN0300B;MOSFETs N;Gen. Purpose;30V 1.51A
.MODEL VN0300B NMOS (LEVEL=1 VTO=1.7 KP=.4 GAMMA=5.04U
+ PHI=.75 LAMBDA=2.5M RD=.468 RS=.368 IS=629F PB=.8 MJ=.46
+ CBD=244P CBS=293P CGSO=216N CGDO=180N CGBO=454N)
*   -- Assumes default L=100U W=100U --
*   30 Volt  1.8 Amp  1.2 ohm Enh-Mode N-Channel MOS-FET  02-12-1993
*   Siliconix
**********
*SRC=VN0300L;VN0300L;MOSFETs N;Gen. Purpose;30V .64A
.MODEL VN0300L NMOS (LEVEL=1 VTO=1.7 KP=.4 GAMMA=5.04U
+ PHI=.75 LAMBDA=2.5M RD=.408 RS=.308 IS=266F PB=.8 MJ=.46
+ CBD=244P CBS=293P CGSO=216N CGDO=180N CGBO=454N)
*   -- Assumes default L=100U W=100U --
*   30 Volt  .63 Amp  1.2 ohm Enh-Mode N-Channel MOS-FET  04-09-1991
*   Siliconix
**********
*SRC=VN0300M;VN0300M;MOSFETs N;Gen. Purpose;30V .67A
.MODEL VN0300M NMOS (LEVEL=1 VTO=1.9 KP=320M GAMMA=2.6
+ PHI=.75 LAMBDA=194U RD=.28 RS=.2 IS=350F PB=.8 MJ=.46
+ CBD=244P CBS=293P CGSO=216N CGDO=180N CGBO=454N)
*   -- Assumes default L=100U W=100U --
*  30 Volt  .7 Amp  2 ohm  Enh-Mode N-Channel MOSFET  02-11-1993
**********
*SRC=VN0603L;VN0603L;MOSFETs N;Gen. Purpose;60V .3A
.MODEL VN0603L NMOS (LEVEL=1 VTO=1.9 KP=.115 GAMMA=2.35
+ PHI=.75 LAMBDA=500U RD=.49 RS=.49 IS=150F PB=.8 MJ=.46
+ CBD=94.5P CBS=63.4P CGSO=24N CGDO=20N CGBO=116N)
*   -- Assumes default L=100U W=100U --
*  60 Volt  .3 Amp  3.5 ohm  Enh-Mode N-Channel MOSFET  03-26-1993
**********
*SRC=VN0603T;VN0603T;MOSFETs N;Gen. Purpose;60V .22A
.MODEL VN0603T NMOS (LEVEL=1 VTO=1.9 KP=.115 GAMMA=2.35
+ PHI=.75 LAMBDA=500U RD=.49 RS=.49 IS=110F PB=.8 MJ=.46
+ CBD=94.5P CBS=63.4P CGSO=24N CGDO=20N CGBO=116N)
*   -- Assumes default L=100U W=100U --
*  60 Volt  .22 Amp  3.5 ohm  Enh-Mode N-Channel MOSFET  03-26-1993
**********
*SRC=3N128;MN128;MOSFETs N;Amplifier;20V .05A
.MODEL MN128 NMOS (LEVEL=1 VTO=-2.65 KP=7M GAMMA=30.2U
+ PHI=.75 LAMBDA=3.75M RD=10.4 RS=9.8 IS=31.2F PB=.8 MJ=.46
+ CBD=20.3P CBS=24.3P CGSO=3N CGDO=2.5N CGBO=54.5N)
*   -- Assumes default L=100U W=100U --
*   20 Volt  .05 Amp  60 ohm Dep-Mode N-Channel MOS-FET  04-08-1991
*   Motorola
**********
*SRC=3N156;MN156;MOSFETs P;Switching;35V .03A
.MODEL MN156 PMOS (LEVEL=1 VTO=-4.2 KP=2.5M GAMMA=10.3U
+ PHI=.75 LAMBDA=2.14M RD=56 RS=56 IS=10.7F PB=.8 MJ=.46
+ CBD=9.46P CBS=11.3P CGSO=11.7N CGDO=9.75N CGBO=16.0N)
*   -- Assumes default L=100U W=100U --
*   35 Volt  .03 Amp  400 ohm Enh-Mode P-Channel MOS-FET  04-08-1991
*   Motorola
**********
*SRC=3N155;MN155;MOSFETs P;Switching;35V .03A
.MODEL MN155 PMOS (LEVEL=1 VTO=-2.2 KP=2.5M GAMMA=5.43U
+ PHI=.75 LAMBDA=2.14M RD=56 RS=56 IS=10.7F PB=.8 MJ=.46
+ CBD=9.46P CBS=11.3P CGSO=11.7N CGDO=9.75N CGBO=16.0N)
*   -- Assumes default L=100U W=100U --
*   35 Volt  .03 Amp  400 ohm Enh-Mode P-Channel MOS-FET  04-08-1991
*   Motorola
**********
*SRC=3N157;MN157;MOSFETs P;Switching;35V .03A
.MODEL MN157 PMOS (LEVEL=1 VTO=-2.2 KP=2.5M GAMMA=5.43U
+ PHI=.75 LAMBDA=2.14M RD=56 RS=56 IS=10.7F PB=.8 MJ=.46
+ CBD=9.46P CBS=11.3P CGSO=11.7N CGDO=9.75N CGBO=16.0N)
*   -- Assumes default L=100U W=100U --
*   35 Volt  .03 Amp  400 ohm Enh-Mode P-Channel MOS-FET  04-08-1991
*   Motorola
**********
*SRC=3N158;MN158;MOSFETs P;Switching;35V .03A
.MODEL MN158 PMOS (LEVEL=1 VTO=-4.2 KP=2.5M GAMMA=10.3U
+ PHI=.75 LAMBDA=2.14M RD=56 RS=56 IS=10.7F PB=.8 MJ=.46
+ CBD=9.46P CBS=11.3P CGSO=11.7N CGDO=9.75N CGBO=16.0N)
*   -- Assumes default L=100U W=100U --
*   35 Volt  .03 Amp  400 ohm Enh-Mode P-Channel MOS-FET  04-08-1991
*   Motorola
**********
*SRC=SD210DE;SD210DE;MOSFETs N;Gen. Purpose;30V 50mA 
.MODEL SD210DE NMOS (LEVEL=1 VTO=1.15 KP=7.15M GAMMA=.992
+ PHI=.75 LAMBDA=22.5M RD=12 RS=15 IS=3.25E-13 PB=.8 MJ=.46
+ CBD=4.65P CBS=5.58P CGSO=2.4N CGDO=2N CGBO=20.6N)
*   -- Assumes default L=100U W=100U --
*  30 Volt  50M Amp  40 ohm  Enh-Mode N-Channel MOSFET  02-05-1993
* Siliconix
**********
*SRC=SD212DE;SD212DE;MOSFETs N;Gen. Purpose;10V 50mA 
.MODEL SD212DE NMOS (LEVEL=1 VTO=1.15 KP=7.15M GAMMA=.992
+ PHI=.75 LAMBDA=22.5M RD=12 RS=15 IS=3.25E-13 PB=.8 MJ=.46
+ CBD=5.13P CBS=6.15P CGSO=2.4N CGDO=2N CGBO=20.6N)
*   -- Assumes default L=100U W=100U --
*  10 Volt  50M Amp  40 ohm  Enh-Mode N-Channel MOSFET  02-05-1993
* Siliconix
**********
*SRC=SD214DE;SD214DE;MOSFETs N;Gen. Purpose;20V 50mA 
.MODEL SD214DE NMOS (LEVEL=1 VTO=1.15 KP=7.15M GAMMA=.992
+ PHI=.75 LAMBDA=22.5M RD=12 RS=15 IS=3.25E-13 PB=.8 MJ=.46
+ CBD=5.13P CBS=6.15P CGSO=2.4N CGDO=2N CGBO=20.6N)
*   -- Assumes default L=100U W=100U --
*  20 Volt  50M Amp  40 ohm  Enh-Mode N-Channel MOSFET  02-05-1993
* Siliconix
**********
*SRC=3N7104;MN7104;MOSFETs N;Gen. Purpose;30V 50mA 
.MODEL MN7104 NMOS (LEVEL=1 VTO=1.1 KP=7.27M GAMMA=.868
+ PHI=.75 LAMBDA=22M RD=13 RS=16 IS=3.25E-13 PB=.8 MJ=.46
+ CBD=8.44P CBS=10.1P CGSO=2.4N CGDO=2N CGBO=21.6N)
*   -- Assumes default L=100U W=100U --
*  30 Volt  50M Amp  58 ohm  Enh-Mode N-Channel MOSFET  02-05-1993
* Siliconix
**********
*SRC=3N7106;MN7106;MOSFETs N;Gen. Purpose;10V 50mA 
.MODEL MN7106 NMOS (LEVEL=1 VTO=1.1 KP=7.27M GAMMA=.893
+ PHI=.75 LAMBDA=22M RD=13 RS=16 IS=3.25E-13 PB=.8 MJ=.46
+ CBD=8.44P CBS=10.1P CGSO=2.4N CGDO=2N CGBO=21.6N)
*   -- Assumes default L=100U W=100U --
*  10 Volt  50M Amp  58 ohm  Enh-Mode N-Channel MOSFET  02-05-1993
* Siliconix
**********
*SRC=3N7108;MN7108;MOSFETs N;Gen. Purpose;20V 50mA 
.MODEL MN7108 NMOS (LEVEL=1 VTO=1.1 KP=7.27M GAMMA=.893
+ PHI=.75 LAMBDA=22M RD=13 RS=16 IS=3.25E-13 PB=.8 MJ=.46
+ CBD=8.44P CBS=10.1P CGSO=2.4N CGDO=2N CGBO=21.6N)
*   -- Assumes default L=100U W=100U --
*  20 Volt  50M Amp  58 ohm  Enh-Mode N-Channel MOSFET  02-05-1993
* Siliconix
**********
*SRC=3N7105;MN7105;MOSFETs N;Gen. Purpose;30V 50mA 
.MODEL MN7105 NMOS (LEVEL=1 VTO=1.2 KP=7.16M GAMMA=.93
+ PHI=.75 LAMBDA=22M RD=12 RS=15 IS=3.25E-13 PB=.8 MJ=.46
+ CBD=8.44P CBS=10.1P CGSO=2.4N CGDO=2N CGBO=21.6N)
*   -- Assumes default L=100U W=100U --
*  30 Volt  50M Amp  58 ohm  Enh-Mode N-Channel MOSFET  02-05-1993
* Siliconix
**********
*SRC=3N7107;MN7107;MOSFETs N;Gen. Purpose;10V 50mA 
.MODEL MN7107 NMOS (LEVEL=1 VTO=1.2 KP=7.16M GAMMA=.93
+ PHI=.75 LAMBDA=22M RD=12 RS=15 IS=3.25E-13 PB=.8 MJ=.46
+ CBD=8.44P CBS=10.1P CGSO=2.4N CGDO=2N CGBO=21.6N)
*   -- Assumes default L=100U W=100U --
*  10 Volt  50M Amp  58 ohm  Enh-Mode N-Channel MOSFET  02-05-1993
* Siliconix
**********
*SRC=3N7109;MN7109;MOSFETs N;Gen. Purpose;20V 50mA 
.MODEL MN7109 NMOS (LEVEL=1 VTO=1.2 KP=7.16M GAMMA=.93
+ PHI=.75 LAMBDA=22M RD=12 RS=15 IS=3.25E-13 PB=.8 MJ=.46
+ CBD=8.44P CBS=10.1P CGSO=2.4N CGDO=2N CGBO=21.6N)
*   -- Assumes default L=100U W=100U --
*  20 Volt  50M Amp  58 ohm  Enh-Mode N-Channel MOSFET  02-05-1993
* Siliconix
**********
*SRC=3N7116;MN7116;MOSFETs N;Gen. Purpose;20V 50mA 
.MODEL MN7116 NMOS (LEVEL=1 VTO=1.2 KP=7.05M GAMMA=.893
+ PHI=.75 LAMBDA=22.5M RD=10 RS=12 IS=3.25E-13 PB=.8 MJ=.46
+ CBD=8.08P CBS=9.7P CGSO=2.4N CGDO=2N CGBO=20.6N)
*   -- Assumes default L=100U W=100U --
*  20 Volt  50M Amp  60 ohm  Enh-Mode N-Channel MOSFET  02-05-1993
* Siliconix
**********
*SRC=3N7117;MN7117;MOSFETs N;Gen. Purpose;10V 50mA 
.MODEL MN7117 NMOS (LEVEL=1 VTO=1.2 KP=7.05M GAMMA=.893
+ PHI=.75 LAMBDA=22.5M RD=10 RS=12 IS=3.25E-13 PB=.8 MJ=.46
+ CBD=8.08P CBS=9.7P CGSO=2.4N CGDO=2N CGBO=20.6N)
*   -- Assumes default L=100U W=100U --
*  10 Volt  50M Amp  60 ohm  Enh-Mode N-Channel MOSFET  02-05-1993
* Siliconix
**********
*SRC=3N7118;MN7118;MOSFETs N;Gen. Purpose;15V 50mA 
.MODEL MN7118 NMOS (LEVEL=1 VTO=1.2 KP=7.05M GAMMA=.893
+ PHI=.75 LAMBDA=22.5M RD=10 RS=12 IS=3.25E-13 PB=.8 MJ=.46
+ CBD=8.08P CBS=9.7P CGSO=2.4N CGDO=2N CGBO=20.6N)
*   -- Assumes default L=100U W=100U --
*  15 Volt  50M Amp  60 ohm  Enh-Mode N-Channel MOSFET  02-05-1993
* Siliconix
**********
*SRC=SD211DE;SD211DE;MOSFETs N;Gen. Purpose;30V 50mA 
.MODEL SD211DE NMOS (LEVEL=1 VTO=1.1 KP=7.2M GAMMA=.992
+ PHI=.75 LAMBDA=22.5M RD=11 RS=13 IS=3.25E-13 PB=.8 MJ=.46
+ CBD=8.08P CBS=9.7P CGSO=2.4N CGDO=2N CGBO=20.6N)
*   -- Assumes default L=100U W=100U --
*  30 Volt  50M Amp  45 ohm  Enh-Mode N-Channel MOSFET  02-05-1993
* Siliconix
**********
*SRC=SD213DE;SD213DE;MOSFETs N;Gen. Purpose;10V 50mA 
.MODEL SD213DE NMOS (LEVEL=1 VTO=1.1 KP=7.2M GAMMA=.992
+ PHI=.75 LAMBDA=22.5M RD=11 RS=13 IS=3.25E-13 PB=.8 MJ=.46
+ CBD=8.08P CBS=9.7P CGSO=2.4N CGDO=2N CGBO=20.6N)
*   -- Assumes default L=100U W=100U --
*  10 Volt  50M Amp  45 ohm  Enh-Mode N-Channel MOSFET  02-05-1993
* Siliconix
**********
*SRC=SD215DE;SD215DE;MOSFETs N;Gen. Purpose;20V 50mA 
.MODEL SD215DE NMOS (LEVEL=1 VTO=1.1 KP=7.2M GAMMA=.992
+ PHI=.75 LAMBDA=22.5M RD=11 RS=13 IS=3.25E-13 PB=.8 MJ=.46
+ CBD=8.08P CBS=9.7P CGSO=2.4N CGDO=2N CGBO=20.6N)
*   -- Assumes default L=100U W=100U --
*  20 Volt  50M Amp  45 ohm  Enh-Mode N-Channel MOSFET  02-05-1993
* Siliconix
**********
*SRC=2SJ76;QSJ76;MOSFETs P;Gen. Purpose;140V 500mA 
.MODEL QSJ76 PMOS (LEVEL=1 VTO=-15 KP=122N GAMMA=18.6
+ PHI=.75 LAMBDA=1.48M RD=.84 RS=.84 IS=250F PB=.8 MJ=.46
+ CBD=444P CBS=533P CGSO=384N CGDO=320N CGBO=346N)
*   -- Assumes default L=100U W=100U --
*  140 Volt  .5 Amp  6 ohm  Enh-Mode P-Channel MOSFET  07-28-1995
* 2SJ76, TOSHIBA, 1993 JAPANESE FET MANUAL, P.16
**********
*SRC=2SJ79;QSJ79;MOSFETs P;Gen. Purpose;200V 500mA 
.MODEL QSJ79 PMOS (LEVEL=1 VTO=-15 KP=122N GAMMA=18.6
+ PHI=.75 LAMBDA=1.04M RD=.84 RS=.84 IS=250F PB=.8 MJ=.46
+ CBD=862P CBS=1.03N CGSO=57.6N CGDO=48N CGBO=1.09U)
*   -- Assumes default L=100U W=100U --
*  200 Volt  .5 Amp  6 ohm  Enh-Mode P-Channel MOSFET  07-28-1995
* 2SJ79, TOSHIBA, 1993 JAPANESE FET MANUAL, P.16
**********
*SRC=2SK213;QSK213;MOSFETs N;Gen. Purpose;140V 500mA 
.MODEL QSK213 NMOS (LEVEL=1 VTO=15 KP=.16 GAMMA=18.6
+ PHI=.75 LAMBDA=1.48M RD=.84 RS=.84 IS=250F PB=.8 MJ=.46
+ CBD=560P CBS=672P CGSO=26.4N CGDO=22N CGBO=852N)
*   -- Assumes default L=100U W=100U --
*  140 Volt  .5 Amp  6 ohm  Enh-Mode N-Channel MOSFET  07-28-1995
* 2SK213, TOSHIBA, 1993 JAPANESE FET MANUAL, P.38
**********
*SRC=2SK216;QSK216;MOSFETs N;Gen. Purpose;200V 500mA 
.MODEL QSK216 NMOS (LEVEL=1 VTO=15 KP=80M GAMMA=18.6
+ PHI=.75 LAMBDA=521U RD=.84 RS=.84 IS=250F PB=.8 MJ=.46
+ CBD=658P CBS=790P CGSO=26.4N CGDO=22N CGBO=852N)
*   -- Assumes default L=100U W=100U --
*  200 Volt  .5 Amp  6 ohm  Enh-Mode N-Channel MOSFET  07-28-1995
* 2SK216, TOSHIBA, 1993 JAPANESE FET MANUAL, P.38
**********
