**********
*SRC=LF351M;LF351M;Opamps;Motorola;JFET Input
*SYM=ADOPAMP
* LF351 OPERATIONAL AMPLIFIER 
*
* CONNECTIONS:
*    1 -  NON-INVERTING INPUT
*    2 -  INVERTING INPUT
*    3 -  POSITIVE POWER SUPPLY
*    4 -  NEGATIVE POWER SUPPLY
*    5 -  OUTPUT
*
.SUBCKT LF351M   1 2 3 4 5
*
C1   11 12 2.887E-12
C2    6  7 10.00E-12
DC    5 53 DX
DE   54  5 DX
DLP  90 91 DX
DLN  92 90 DX
DP    4  3 DX
EGND 99  0 POLY(2) 3 0   4 0  0 .5 .5
FB    7 99 POLY(5) VB VC VE VLP VLN 0 7.958E6 
+ -8E6 8E6 8E6 -8E6
GA    6  0 11 12 251.3E-6
GCM   0  6 10 99 2.513E-9
ISS   3 10 DC 130.0E-6
HLIM 90  0 VLIM 1K
J1   11  2 10 JX
J2   12  1 10 JX
R2    6  9 100.0E3
RD1   4 11 3.979E3
RD2   4 12 3.979E3
RO1   8  5 50
RO2   7 99 50
RP    3  4 4.167E3
RSS  10 99 1.538E6
VB    9  0 DC 0
VC    3 53 DC 1.65
VE   54  4 DC 1.65
VLIM  7  8 DC 0
VLP  91  0 DC 18
VLN   0 92 DC 18
.MODEL DX D(IS=800.0E-18)
.MODEL JX PJF(IS=25.00E-12 BETA=485.9E-6 
+ VTO=-1)
.ENDS
**********
*SRC=LF356M;LF356M;Opamps;Motorola;JFET Input
*SYM=ADOPAMP
* LF356 OPERATIONAL AMPLIFIER 
*
* CONNECTIONS:
*    1 -  NON-INVERTING INPUT
*    2 -  INVERTING INPUT
*    3 -  POSITIVE POWER SUPPLY
*    4 -  NEGATIVE POWER SUPPLY
*    5 -  OUTPUT
*
.SUBCKT LF356M   1 2 3 4 5
*
C1   11 12 8.660E-12
C2    6  7 9.50E-12
DC    5 53 DX
DE   54  5 DX
DLP  90 91 DX
DLN  92 90 DX
DP    4  3 DX
EGND 99  0 POLY(2) 3 0   4 0  0 .5 .5
FB    7 99 POLY(5) VB VC VE VLP VLN 0 13.26E6 -10E6 10E6 10E6 -10E6
GA    6  0 11 12 377.0E-6
GCM   0  6 10 99 3.770E-9
ISS   3 10 DC 120.0E-6
HLIM 90  0 VLIM 1K
J1   11  2 10 JX
J2   12  1 10 JX
R2    6  9 100.0E3
RD1   4 11 2.653E3
RD2   4 12 2.653E3
RO1   8  5 30
RO2   7 99 30
RP    3  4 6.000E3
RSS  10 99 1.667E6
VB    9  0 DC 0
VC    3 53 DC 3.6
VE   54  4 DC 3.6
VLIM  7  8 DC 0
VLP  91  0 DC 20
VLN   0 92 DC 20
.MODEL DX D(IS=800.0E-18)
.MODEL JX PJF(IS=15.00E-12 BETA=1.184E-3 VTO=-1)
.ENDS
**********
*SRC=LF411M;LF411M;Opamps;Motorola;JFET Input
*SYM=ADOPAMP
* LF411 OPERATIONAL AMPLIFIER 
*
* CONNECTIONS:
*    1 -  NON-INVERTING INPUT
*    2 -  INVERTING INPUT
*    3 -  POSITIVE POWER SUPPLY
*    4 -  NEGATIVE POWER SUPPLY
*    5 -  OUTPUT
*
.SUBCKT LF411M  1 2 3 4 5
*
C1   11 12 2.801E-12
C2    6  7 8.000E-12
CSS  10 99 3.200E-12
DC    5 53 DX
DE   54  5 DX
DLP  90 91 DX
DLN  92 90 DX
DP    4  3 DX
EGND 99  0 POLY(2) 3 0   4 0  0 .5 .5
FB    7 99 POLY(5) VB VC VE VLP VLN 0 3.316E6 
+  -3E6 3E6 3E6 -3E6
GA    6  0 11 12 402.1E-6
GCM   0  6 10 99 12.72E-9
ISS   3 10 DC 280.0E-6
HLIM 90  0 VLIM 1K
J1   11  2 10 JX
J2   12  1 10 JX
R2    6  9 100.0E3
RD1   4 11 2.487E3
RD2   4 12 2.487E3
RO1   8  5 40
RO2   7 99 60
RP    3  4 24.00E3
RSS  10 99 714.3E3
VB    9  0 DC 0
VC    3 53 DC 1.100
VE   54  4 DC .3
VLIM  7  8 DC 0
VLP  91  0 DC 30
VLN   0 92 DC 30
.MODEL DX D(IS=800.0E-18)
.MODEL JX PJF(IS=30.00E-12 BETA=577.5E-6 
+  VTO=-1)
.ENDS
**********
*SRC=LF412M;LF412M;Opamps;Motorola;JFET Input
*SYM=ADOPAMP
* LF412 OPERATIONAL AMPLIFIER
*
* CONNECTIONS:
*    1 -  NON-INVERTING INPUT
*    2 -  INVERTING INPUT
*    3 -  POSITIVE POWER SUPPLY
*    4 -  NEGATIVE POWER SUPPLY
*    5 -  OUTPUT
*
.SUBCKT LF412M  1 2 3 4 5
*
C1   11 12 3.356E-12
C2    6  7 8.000E-12
DC    5 53 DX
DE   54  5 DX
DLP  90 91 DX
DLN  92 90 DX
DP    4  3 DX
EGND 99  0 POLY(2) 3 0   4 0  0 .5 .5
FB    7 99 POLY(5) VB VC VE VLP VLN 0 12.43E6
+  -10E6 10E6 10E6 -10E6
GA    6  0 11 12 201.1E-6
GCM   0  6 10 99 2.011E-9
ISS   3 10 DC 104.0E-6
HLIM 90  0 VLIM 1K
J1   11  2 10 JX
J2   12  1 10 JX
R2    6  9 100.0E3
RD1   4 11 4.974E3
RD2   4 12 4.974E3
RO1   8  5 40
RO2   7 99 60
RP    3  4 21.43E3
RSS  10 99 1.923E6
VB    9  0 DC 0
VC    3 53 DC 1
VE   54  4 DC 1
VLIM  7  8 DC 0
VLP  91  0 DC 10
VLN   0 92 DC 10
.MODEL DX D(IS=800.0E-18)
.MODEL JX PJF(IS=250.0E-15 BETA=388.7E-6 
+ VTO=-1)
.ENDS
**********
*SRC=LF441M;LF441M;Opamps;Motorola;
*SYM=ADOPAMP
* LF441 OPERATIONAL AMPLIFIER 
*
* CONNECTIONS:
*    1 -  NON-INVERTING INPUT
*    2 -  INVERTING INPUT
*    3 -  POSITIVE POWER SUPPLY
*    4 -  NEGATIVE POWER SUPPLY
*    5 -  OUTPUT
*
.SUBCKT LF441M  1 2 3 4 5
*
C1   11 12 1.061E-12
C2    6  7 5.000E-12
CSS  10 99 4.000E-12
DC    5 53 DX
DE   54  5 DX
DLP  90 91 DX
DLN  92 90 DX
DP    4  3 DX
EGND 99  0 POLY(2) 3 0   4 0  0 .5 .5
FB    7 99 POLY(5) VB VC VE VLP VLN 0 4.775E6 
+  -5E6 5E6 5E6 -5E6
GA    6  0 11 12 125.7E-6
GCM   0  6 10 99 6.298E-9
ISS   3 10 DC 90.00E-6
HLIM 90  0 VLIM 1K
J1   11  2 10 JX
J2   12  1 10 JX
R2    6  9 100.0E3
RD1   4 11 7.958E3
RD2   4 12 7.958E3
RO1   8  5 200
RO2   7 99 100
RP    3  4 285.7E3
RSS  10 99 2.222E6
VB    9  0 DC 0
VC    3 53 DC 1
VE   54  4 DC 1
VLIM  7  8 DC 0
VLP  91  0 DC 10
VLN   0 92 DC 10
.MODEL DX D(IS=800.0E-18)
.MODEL JX PJF(IS=1.500E-12 BETA=175.5E-6 
+  VTO=-1)
.ENDS
**********
*SRC=LF442M;LF442M;Opamps;Motorola;
*SYM=ADOPAMP
* LF442 OPERATIONAL AMPLIFIER 
*
* CONNECTIONS:
*    1 -  NON-INVERTING INPUT
*    2 -  INVERTING INPUT
*    3 -  POSITIVE POWER SUPPLY
*    4 -  NEGATIVE POWER SUPPLY
*    5 -  OUTPUT
*
.SUBCKT LF442M  1 2 3 4 5
*
C1   11 12 1.061E-12
C2    6  7 5.000E-12
CSS  10 99 4.000E-12
DC    5 53 DX
DE   54  5 DX
DLP  90 91 DX
DLN  92 90 DX
DP    4  3 DX
EGND 99  0 POLY(2) 3 0   4 0  0 .5 .5
FB    7 99 POLY(5) VB VC VE VLP VLN 0 4.775E6 
+  -5E6 5E6 5E6 -5E6
GA    6  0 11 12 125.7E-6
GCM   0  6 10 99 6.298E-9
ISS   3 10 DC 90.00E-6
HLIM 90  0 VLIM 1K
J1   11  2 10 JX
J2   12  1 10 JX
R2    6  9 100.0E3
RD1   4 11 7.958E3
RD2   4 12 7.958E3
RO1   8  5 200
RO2   7 99 100
RP    3  4 285.7E3
RSS  10 99 2.222E6
VB    9  0 DC 0
VC    3 53 DC 1
VE   54  4 DC 1
VLIM  7  8 DC 0
VLP  91  0 DC 10
VLN   0 92 DC 10
.MODEL DX D(IS=800.0E-18)
.MODEL JX PJF(IS=1.500E-12 BETA=175.5E-6 
+  VTO=-1)
.ENDS
**********
*SRC=LF444M;LF444M;Opamps;Motorola;
*SYM=ADOPAMP
* LF444 OPERATIONAL AMPLIFIER 
*
* CONNECTIONS:
*    1 -  NON-INVERTING INPUT
*    2 -  INVERTING INPUT
*    3 -  POSITIVE POWER SUPPLY
*    4 -  NEGATIVE POWER SUPPLY
*    5 -  OUTPUT
*
.SUBCKT LF444M  1 2 3 4 5
*
C1   11 12 1.061E-12
C2    6  7 5.000E-12
CSS  10 99 4.000E-12
DC    5 53 DX
DE   54  5 DX
DLP  90 91 DX
DLN  92 90 DX
DP    4  3 DX
EGND 99  0 POLY(2) 3 0   4 0  0 .5 .5
FB    7 99 POLY(5) VB VC VE VLP VLN 0 4.775E6 
+  -5E6 5E6 5E6 -5E6
GA    6  0 11 12 125.7E-6
GCM   0  6 10 99 6.298E-9
ISS   3 10 DC 90.00E-6
HLIM 90  0 VLIM 1K
J1   11  2 10 JX
J2   12  1 10 JX
R2    6  9 100.0E3
RD1   4 11 7.958E3
RD2   4 12 7.958E3
RO1   8  5 200
RO2   7 99 100
RP    3  4 285.7E3
RSS  10 99 2.222E6
VB    9  0 DC 0
VC    3 53 DC 1
VE   54  4 DC 1
VLIM  7  8 DC 0
VLP  91  0 DC 10
VLN   0 92 DC 10
.MODEL DX D(IS=800.0E-18)
.MODEL JX PJF(IS=1.500E-12 BETA=175.5E-6 
+  VTO=-1)
.ENDS
**********
*SRC=LM11M;LM11M;Opamps;Motorola;Precision, Low Drift
*SYM=ADOPAMP
* LM11 OPERATIONAL AMPLIFIER  
*
* CONNECTIONS:
*    1 -  NON-INVERTING INPUT
*    2 -  INVERTING INPUT
*    3 -  POSITIVE POWER SUPPLY
*    4 -  NEGATIVE POWER SUPPLY
*    5 -  OUTPUT
*
.SUBCKT LM11M     1 2 3 4 5
*
C1   11 12 12.59E-12
C2    6  7 28.00E-12
DC    5 53 DX
DE   54  5 DX
DLP  90 91 DX
DLN  92 90 DX
DP    4  3 DX
EGND 99  0 POLY(2) 3 0   4 0  0 .5 .5
FB    7 99 POLY(5) VB VC VE VLP VLN 0 65.29E6 
+ -70E6 70E6 70E6 -70E6
GA    6  0 11 12 122.5E-6
GCM   0  6 10 99 38.74E-12
IEE  10  4 DC 6.900E-6
HLIM 90  0 VLIM 1K
Q1   11  2 13 QX
Q2   12  1 14 QX
R2    6  9 100.0E3
RC1   3 11 8.162E3
RC2   3 12 8.162E3
RE1  13 10 660.9
RE2  14 10 660.9
REE  10 99 28.99E6
RO1   8  5 41
RO2   7 99 41
RP    3  4 102.4E3
VB    9  0 DC 0
VC    3 53 DC 2.65
VE   54  4 DC 2.65
VLIM  7  8 DC 0
VLP  91  0 DC 10
VLN   0 92 DC 10
.MODEL DX D(IS=800.0E-18)
.MODEL QX NPN(IS=800.0E-18 BF=202.9E3)
.ENDS
**********
*SRC=LM307M;LM307M;Opamps;Motorola;Low IOS, 50nA
*SYM=ADOPAMP
* LM307 OPERATIONAL AMPLIFIER 
*
* CONNECTIONS:
*    1 -  NON-INVERTING INPUT
*    2 -  INVERTING INPUT
*    3 -  POSITIVE POWER SUPPLY
*    4 -  NEGATIVE POWER SUPPLY
*    5 -  OUTPUT
*
.SUBCKT LM307M    1 2 3 4 5
*
C1   11 12 8.660E-12
C2    6  7 30.00E-12
DC    5 53 DX
DE   54  5 DX
DLP  90 91 DX
DLN  92 90 DX
DP    4  3 DX
EGND 99  0 POLY(2) 3 0   4 0  0 .5 .5
FB    7 99 POLY(5) VB VC VE VLP VLN 0 29.27E6 
+ -30E6 30E6 30E6 -30E6
GA    6  0 11 12 136.7E-6
GCM   0  6 10 99 4.322E-9
IEE  10  4 DC 15.14E-6
HLIM 90  0 VLIM 1K
Q1   11  2 13 QX
Q2   12  1 14 QX
R2    6  9 100.0E3
RC1   3 11 7.317E3
RC2   3 12 7.317E3
RE1  13 10 3.833E3
RE2  14 10 3.833E3
REE  10 99 13.21E6
RO1   8  5 40
RO2   7 99 40
RP    3  4 16.81E3
VB    9  0 DC 0
VC    3 53 DC 2.65
VE   54  4 DC 2.65
VLIM  7  8 DC 0
VLP  91  0 DC 20
VLN   0 92 DC 20
.MODEL DX D(IS=800.0E-18)
.MODEL QX NPN(IS=800.0E-18 BF=107.1)
.ENDS
**********
*SRC=LM324M;LM324M;Opamps;Motorola;Low Cost
*SYM=ADOPAMP
* LM324 OPERATIONAL AMPLIFIER 
*
* CONNECTIONS:
*    1 -  NON-INVERTING INPUT
*    2 -  INVERTING INPUT
*    3 -  POSITIVE POWER SUPPLY
*    4 -  NEGATIVE POWER SUPPLY
*    5 -  OUTPUT
*
.SUBCKT LM324M  1 2 3 4 5
*
C1   11 12 3.000E-12
C2    6  7 6.000E-12
CEE  10 99 315.8E-15
DC    5 53 DX
DE   54  5 DX
DLP  90 91 DX
DLN  92 90 DX
DP    4  3 DX
EGND 99  0 POLY(2) 3 0   4 0  0 .5 .5
FB    7 99 POLY(5) VB VC VE VLP VLN 0 53.05E6 
+ -50E6 50E6 50E6 -50E6
GA    6  0 11 12 37.70E-6
GCM   0  6 10 99 11.92E-9
IEE   3 10 DC 2.476E-6
HLIM 90  0 VLIM 1K
Q1   11  2 13 QX
Q2   12  1 14 QX
R2    6  9 100.0E3
RC1   4 11 26.53E3
RC2   4 12 26.53E3
RE1  13 10 4.820E3
RE2  14 10 4.820E3
REE  10 99 80.78E6
RO1   8  5 50
RO2   7 99 50
RP    3  4 34.71E3
VB    9  0 DC 0
VC    3 53 DC 2
VE   54  4 DC 5.000E-3
VLIM  7  8 DC 0
VLP  91  0 DC 40
VLN   0 92 DC 40
.MODEL DX D(IS=800.0E-18)
.MODEL QX PNP(IS=800.0E-18 BF=31.58)
.ENDS
**********
*SRC=LM348M;LM348M;Opamps;Motorola;Low Power
*SYM=ADOPAMP
* LM348 OPERATIONAL AMPLIFIER  
*
* CONNECTIONS:
*    1 -  NON-INVERTING INPUT
*    2 -  INVERTING INPUT
*    3 -  POSITIVE POWER SUPPLY
*    4 -  NEGATIVE POWER SUPPLY
*    5 -  OUTPUT
*
.SUBCKT LM348M    1 2 3 4 5
*
C1   11 12 8.660E-12
C2    6  7 30.00E-12
DC    5 53 DX
DE   54  5 DX
DLP  90 91 DX
DLN  92 90 DX
DP    4  3 DX
EGND 99  0 POLY(2) 3 0   4 0  0 .5 .5
FB    7 99 POLY(5) VB VC VE VLP VLN 0 19.68E6   
+ -20E6 20E6 20E6 -20E6
GA    6  0 11 12 216.8E-6
GCM   0  6 10 99 6.855E-9
IEE  10  4 DC 15.06E-6
HLIM 90  0 VLIM 1K
Q1   11  2 13 QX
Q2   12  1 14 QX
R2    6  9 100.0E3
RC1   3 11 4.613E3
RC2   3 12 4.613E3
RE1  13 10 1.160E3
RE2  14 10 1.160E3
REE  10 99 13.28E6
RO1   8  5 37.50
RO2   7 99 37.50
RP    3  4 12.58E3
VB    9  0 DC 0
VC    3 53 DC 3.6
VE   54  4 DC 3.6
VLIM  7  8 DC 0
VLP  91  0 DC 25
VLN   0 92 DC 25
.MODEL DX D(IS=800.0E-18)
.MODEL QX NPN(IS=800.0E-18 BF=250)
.ENDS
**********
*SRC=LM358M;LM358M;Opamps;Motorola;Low Power
*SYM=ADOPAMP
* LM358 OPERATIONAL AMPLIFIER
*
* CONNECTIONS:
*    1 -  NON-INVERTING INPUT
*    2 -  INVERTING INPUT
*    3 -  POSITIVE POWER SUPPLY
*    4 -  NEGATIVE POWER SUPPLY
*    5 -  OUTPUT
*
.SUBCKT LM358M  1 2 3 4 5
*
C1   11 12 3.000E-12
C2    6  7 6.000E-12
CEE  10 99 388.6E-15
DC    5 53 DX
DE   54  5 DX
DLP  90 91 DX
DLN  92 90 DX
DP    4  3 DX
EGND 99  0 POLY(2) 3 0   4 0  0 .5 .5
FB    7 99 POLY(5) VB VC VE VLP VLN 0 48.23E6 
+  -50E6 50E6 50E6 -50E6
GA    6  0 11 12 41.47E-6
GCM   0  6 10 99 414.7E-12
IEE   3 10 DC 2.543E-6
HLIM 90  0 VLIM 1K
Q1   11  2 13 QX
Q2   12  1 14 QX
R2    6  9 100.0E3
RC1   4 11 24.11E3
RC2   4 12 24.11E3
RE1  13 10 3.043E3
RE2  14 10 3.043E3
REE  10 99 78.65E6
RO1   8  5 50
RO2   7 99 25
RP    3  4 37.62E3
VB    9  0 DC 0
VC    3 53 DC 1.800
VE   54  4 DC .88
VLIM  7  8 DC 0
VLP  91  0 DC 40
VLN   0 92 DC 40
DESD1  1  3 DX
DESD2  2  3 DX
.MODEL DX D(IS=800.0E-18)
.MODEL QX PNP(IS=800.0E-18 BF=32.03)
.ENDS
**********
*SRC=LM833M;LM833M;Opamps;Motorola;Low Noise
*SYM=ADOPAMP
* LM833 OPERATIONAL AMPLIFIER 
*
* CONNECTIONS:
*    1 -  NON-INVERTING INPUT
*    2 -  INVERTING INPUT
*    3 -  POSITIVE POWER SUPPLY
*    4 -  NEGATIVE POWER SUPPLY
*    5 -  OUTPUT
*
.SUBCKT LM833M  1 2 3 4 5
*
C1   11 12 3.501E-12
C2    6  7 10.00E-12
DC    5 53 DX
DE   54  5 DX
DLP  90 91 DX
DLN  92 90 DX
DP    4  3 DX
EGND 99  0 POLY(2) 3 0   4 0  0 .5 .5
FB    7 99 POLY(5) VB VC VE VLP VLN 0 27.96E6 
+  -30E6 30E6 30E6 -30E6
GA    6  0 11 12 565.5E-6
GCM   0  6 10 99 5.655E-9
ISS  10  4 DC 70.00E-6
HLIM 90  0 VLIM 1K
J1   11  2 10 JX
J2   12  1 10 JX
R2    6  9 100.0E3
RD1   3 11 1.768E3
RD2   3 12 1.768E3
RO1   8  5 10
RO2   7 99 20
RP    3  4 29.03E3
RSS  10 99 2.857E6
VB    9  0 DC 0
VC    3 53 DC .9
VE   54  4 DC .4
VLIM  7  8 DC 0
VLP  91  0 DC 30
VLN   0 92 DC 30
.MODEL DX D(IS=800.0E-18)
.MODEL JX NJF(IS=150.0E-9 BETA=4.568E-3 
+  VTO=-1)
.ENDS
**********
*SRC=LM2902M;LM2902M;Opamps;Motorola;Low Cost
*SYM=ADOPAMP
* LM2902 OPERATIONAL AMPLIFIER 
*
* CONNECTIONS:
*    1 -  NON-INVERTING INPUT
*    2 -  INVERTING INPUT
*    3 -  POSITIVE POWER SUPPLY
*    4 -  NEGATIVE POWER SUPPLY
*    5 -  OUTPUT
*
.SUBCKT LM2902M  1 2 3 4 5
*
C1   11 12 2.000E-12
C2    6  7 6.000E-12
CEE  10 99 388.6E-15
DC    5 53 DX
DE   54  5 DX
DLP  90 91 DX
DLN  92 90 DX
DP    4  3 DX
EGND 99  0 POLY(2) 3 0   4 0  0 .5 .5
FB    7 99 POLY(5) VB VC VE VLP VLN 0 48.23E6 
+  -50E6 50E6 50E6 -50E6
GA    6  0 11 12 41.47E-6
GCM   0  6 10 99 414.7E-12
IEE   3 10 DC 2.543E-6
HLIM 90  0 VLIM 1K
Q1   11  2 13 QX
Q2   12  1 14 QX
R2    6  9 100.0E3
RC1   4 11 24.11E3
RC2   4 12 24.11E3
RE1  13 10 3.043E3
RE2  14 10 3.043E3
REE  10 99 78.65E6
RO1   8  5 50
RO2   7 99 25
RP    3  4 37.62E3
VB    9  0 DC 0
VC    3 53 DC 1.800
VE   54  4 DC .88
VLIM  7  8 DC 0
VLP  91  0 DC 40
VLN   0 92 DC 40
.MODEL DX D(IS=800.0E-18)
.MODEL QX PNP(IS=800.0E-18 BF=32.03)
.ENDS
**********
*SRC=LM2904M;LM2904M;Opamps;Motorola;Low Power
*SYM=ADOPAMP
* LM2904 OPERATIONAL AMPLIFIER 
*
* CONNECTIONS:
*    1 -  NON-INVERTING INPUT
*    2 -  INVERTING INPUT
*    3 -  POSITIVE POWER SUPPLY
*    4 -  NEGATIVE POWER SUPPLY
*    5 -  OUTPUT
*
.SUBCKT LM2904M  1 2 3 4 5
*
C1   11 12 3.000E-12
C2    6  7 6.000E-12
CEE  10 99 388.6E-15
DC    5 53 DX
DE   54  5 DX
DLP  90 91 DX
DLN  92 90 DX
DP    4  3 DX
EGND 99  0 POLY(2) 3 0   4 0  0 .5 .5
FB    7 99 POLY(5) VB VC VE VLP VLN 0 48.23E6 
+  -50E6 50E6 50E6 -50E6
GA    6  0 11 12 41.47E-6
GCM   0  6 10 99 414.7E-12
IEE   3 10 DC 2.543E-6
HLIM 90  0 VLIM 1K
Q1   11  2 13 QX
Q2   12  1 14 QX
R2    6  9 100.0E3
RC1   4 11 24.11E3
RC2   4 12 24.11E3
RE1  13 10 3.043E3
RE2  14 10 3.043E3
REE  10 99 78.65E6
RO1   8  5 50
RO2   7 99 25
RP    3  4 37.62E3
VB    9  0 DC 0
VC    3 53 DC 1.800
VE   54  4 DC .88
VLIM  7  8 DC 0
VLP  91  0 DC 40
VLN   0 92 DC 40
DESD1  1  3 DX
DESD2  2  3 DX
.MODEL DX D(IS=800.0E-18)
.MODEL QX PNP(IS=800.0E-18 BF=32.03)
.ENDS
**********
*SRC=MC1458;MC1458;Opamps;Motorola;Internal Comp.
*SYM=ADOPAMP
* MC1458 OPERATIONAL AMPLIFIER 
*
* CONNECTIONS:
*    1 -  NON-INVERTING INPUT
*    2 -  INVERTING INPUT
*    3 -  POSITIVE POWER SUPPLY
*    4 -  NEGATIVE POWER SUPPLY
*    5 -  OUTPUT
*
.SUBCKT MC1458   1 2 3 4 5
*
C1   11 12 8.660E-12
C2    6  7 30.00E-12
DC    5 53 DX
DE   54  5 DX
DLP  90 91 DX
DLN  92 90 DX
DP    4  3 DX
EGND 99  0 POLY(2) 3 0   4 0  0 .5 .5
FB    7 99 POLY(5) VB VC VE VLP VLN 0 22.64E6 
+  -20E6 20E6 20E6 -20E6
GA    6  0 11 12 235.6E-6
GCM   0  6 10 99 7.451E-9
IEE  10  4 DC 15.16E-6
HLIM 90  0 VLIM 1K
Q1   11  2 13 QX
Q2   12  1 14 QX
R2    6  9 100.0E3
RC1   3 11 4.244E3
RC2   3 12 4.244E3
RE1  13 10 787.2
RE2  14 10 787.2
REE  10 99 13.19E6
RO1   8  5 37.50
RO2   7 99 37.50
RP    3  4 13.13E3
VB    9  0 DC 0
VC    3 53 DC 2.65
VE   54  4 DC 2.65
VLIM  7  8 DC 0
VLP  91  0 DC 20
VLN   0 92 DC 20
.MODEL DX D(IS=800.0E-18)
.MODEL QX NPN(IS=800.0E-18 BF=93.75)
.ENDS
**********
*SRC=MC1536;MC1536;Opamps;Motorola;High Voltage
*SYM=ADOPAMP
* MC1536 OPERATIONAL AMPLIFIER 
*
* CONNECTIONS:
*    1 -  NON-INVERTING INPUT
*    2 -  INVERTING INPUT
*    3 -  POSITIVE POWER SUPPLY
*    4 -  NEGATIVE POWER SUPPLY
*    5 -  OUTPUT
*
.SUBCKT MC1536  1 2 3 4 5
*
C1   11 12 18.00E-12
C2    6  7 28.50E-12
DC    5 53 DX
DE   54  5 DX
DLP  90 91 DX
DLN  92 90 DX
DP    4  3 DX
EGND 99  0 POLY(2) 3 0   4 0  0 .5 .5
FB    7 99 POLY(5) VB VC VE VLP VLN 0 2.653E6 
+ -3E6 3E6 3E6 -3E6
GA    6  0 11 12 377.0E-6
GCM   0  6 10 99 1.192E-9
IEE  10  4 DC 60.02E-6
HLIM 90  0 VLIM 1K
Q1   11  2 13 QX
Q2   12  1 14 QX
R2    6  9 100.0E3
RC1   3 11 2.653E3
RC2   3 12 2.653E3
RE1  13 10 1.790E3
RE2  14 10 1.790E3
REE  10 99 3.332E6
RO1   8  5 500
RO2   7 99 500
RP    3  4 26.17E3
VB    9  0 DC 0
VC    3 53 DC 5.740
VE   54  4 DC 5.740
VLIM  7  8 DC 0
VLP  91  0 DC 17
VLN   0 92 DC 17
.MODEL DX D(IS=800.0E-18)
.MODEL QX NPN(IS=800.0E-18 BF=3.750E3)
.ENDS
**********
*SRC=MC1747;MC1747;Opamps;Motorola;Internal Comp.
*SYM=ADOPAMP
* MC1747 OPERATIONAL AMPLIFIER 
*
* CONNECTIONS:
*    1 -  NON-INVERTING INPUT
*    2 -  INVERTING INPUT
*    3 -  POSITIVE POWER SUPPLY
*    4 -  NEGATIVE POWER SUPPLY
*    5 -  OUTPUT
*
.SUBCKT MC1747   1 2 3 4 5
*
C1   11 12 10.50E-12
C2    6  7 31.00E-12
DC    5 53 DX
DE   54  5 DX
DLP  90 91 DX
DLN  92 90 DX
DP    4  3 DX
EGND 99  0 POLY(2) 3 0   4 0  0 .5 .5
FB    7 99 POLY(5) VB VC VE VLP VLN 0 23.81E6 -20E6 20E6 20E6 -20E6
GA    6  0 11 12 224.0E-6
GCM   0  6 10 99 7.083E-9
IEE  10  4 DC 15.66E-6
HLIM 90  0 VLIM 1K
Q1   11  2 13 QX
Q2   12  1 14 QX
R2    6  9 100.0E3
RC1   3 11 4.464E3
RC2   3 12 4.464E3
RE1  13 10 1.116E3
RE2  14 10 1.116E3
REE  10 99 12.77E6
RO1   8  5 37.50
RO2   7 99 37.50
RP    3  4 18.17E3
VB    9  0 DC 0
VC    3 53 DC 2.6
VE   54  4 DC 2.6
VLIM  7  8 DC 0
VLP  91  0 DC 25
VLN   0 92 DC 25
.MODEL DX D(IS=800.0E-18)
.MODEL QX NPN(IS=800.0E-18 BF=96.87)
.ENDS
**********
* SRC=MC3403;MC3403;Opamps;Motorola;Low Power
*
*MC3403 OPERATIONAL AMPLIFIER 
*
* CONNECTIONS:
*    1 -  NON-INVERTING INPUT
*    2 -  INVERTING INPUT
*    3 -  POSITIVE POWER SUPPLY
*    4 -  NEGATIVE POWER SUPPLY
*    5 -  OUTPUT
*
.SUBCKT MC3403 1 2 3 4 5
*
C1   11 12 5.750E-12
C2    6  7 12.50E-12
DC    5 53 DX
DE   54  5 DX
DLP  90 91 DX
DLN  92 90 DX
DP    4  3 DX
EGND 99  0 POLY(2) 3 0   4 0  0 .5 .5
FB    7 99 POLY(5) VB VC VE VLP VLN 0 45.39E6
+  -50E6 50E6 50E6 -50E6
GA    6  0 11 12 117.5E-6
GCM   0  6 10 99 3.716E-9
IEE   3 10 DC 7.000E-6
HLIM 90  0 VLIM 1K
Q1   11  2 13 QX
Q2   12  1 14 QX
R2    6  9 100.0E3
RC1   4 11 8.511E3
RC2   4 12 8.511E3
RE1  13 10 634.9
RE2  14 10 634.9
REE  10 99 28.57E6
RO1   8  5 37.50
RO2   7 99 37.50
RP    3  4 18.83E3
VB    9  0 DC 0
VC    3 53 DC 2.740
VE   54  4 DC 2.740
VLIM  7  8 DC 0
VLP  91  0 DC 20
VLN   0 92 DC 20
.MODEL DX D(IS=800.0E-18)
.MODEL QX PNP(IS=800.0E-18 BF=16.50)
.ENDS
**********
*SRC=MC3458;MC3458;Opamps;Motorola;Low Power
*SYM=ADOPAMP
* MC3458 OPERATIONAL AMPLIFIER 
*
* CONNECTIONS:
*    1 -  NON-INVERTING INPUT
*    2 -  INVERTING INPUT
*    3 -  POSITIVE POWER SUPPLY
*    4 -  NEGATIVE POWER SUPPLY
*    5 -  OUTPUT
*
.SUBCKT MC3458   1 2 3 4 5
*
C1   11 12 5.750E-12
C2    6  7 12.50E-12
DC    5 53 DX
DE   54  5 DX
DLP  90 91 DX
DLN  92 90 DX
DP    4  3 DX
EGND 99  0 POLY(2) 3 0   4 0  0 .5 .5
FB    7 99 POLY(5) VB VC VE VLP VLN 0 45.39E6
+  -50E6 50E6 50E6 -50E6
GA    6  0 11 12 117.5E-6
GCM   0  6 10 99 3.716E-9
IEE   3 10 DC 7.000E-6
HLIM 90  0 VLIM 1K
Q1   11  2 13 QX
Q2   12  1 14 QX
R2    6  9 100.0E3
RC1   4 11 8.511E3
RC2   4 12 8.511E3
RE1  13 10 634.9
RE2  14 10 634.9
REE  10 99 28.57E6
RO1   8  5 37.50
RO2   7 99 37.50
RP    3  4 18.83E3
VB    9  0 DC 0
VC    3 53 DC 2.740
VE   54  4 DC 2.740
VLIM  7  8 DC 0
VLP  91  0 DC 20
VLN   0 92 DC 20
.MODEL DX D(IS=800.0E-18)
.MODEL QX PNP(IS=800.0E-18 BF=16.50)
.ENDS
**********
*SRC=MC4558;MC4558;Opamps;Motorola;Wideband, 2.8MHz UBW
*SYM=ADOPAMP
* MC4558 OPERATIONAL AMPLIFIER 
*
* CONNECTIONS:
*    1 -  NON-INVERTING INPUT
*    2 -  INVERTING INPUT
*    3 -  POSITIVE POWER SUPPLY
*    4 -  NEGATIVE POWER SUPPLY
*    5 -  OUTPUT
*
.SUBCKT MC4558   1 2 3 4 5
*
C1   11 12 4.201E-12
C2    6  7 13.00E-12
DC    5 53 DX
DE   54  5 DX
DLP  90 91 DX
DLN  92 90 DX
DP    4  3 DX
EGND 99  0 POLY(2) 3 0   4 0  0 .5 .5
FB    7 99 POLY(5) VB VC VE VLP VLN 0 16.58E6
+  -20E6 20E6 20E6 -20E6
GA    6  0 11 12 301.6E-6
GCM   0  6 10 99 9.537E-9
IEE   3 10 DC 19.68E-6
HLIM 90  0 VLIM 1K
Q1   11  2 13 QX
Q2   12  1 14 QX
R2    6  9 100.0E3
RC1   4 11 3.316E3
RC2   4 12 3.316E3
RE1  13 10 615.9
RE2  14 10 615.9
REE  10 99 10.32E6
RO1   8  5 40
RO2   7 99 40
RP    3  4 13.15E3
VB    9  0 DC 0
VC    3 53 DC 2.600
VE   54  4 DC 2.600
VLIM  7  8 DC 0
VLP  91  0 DC 20
VLN   0 92 DC 20
.MODEL DX D(IS=800.0E-18)
.MODEL QX PNP(IS=800.0E-18 BF=109.1)
.ENDS
**********
*SRC=MC4741;MC4741;Opamps;Motorola;Low Power
*SYM=ADOPAMP
* MC4741 OPERATIONAL AMPLIFIER 
*
* CONNECTIONS:
*    1 -  NON-INVERTING INPUT
*    2 -  INVERTING INPUT
*    3 -  POSITIVE POWER SUPPLY
*    4 -  NEGATIVE POWER SUPPLY
*    5 -  OUTPUT
*
.SUBCKT MC4741   1 2 3 4 5
*
C1   11 12 10.50E-12
C2    6  7 31.00E-12
DC    5 53 DX
DE   54  5 DX
DLP  90 91 DX
DLN  92 90 DX
DP    4  3 DX
EGND 99  0 POLY(2) 3 0   4 0  0 .5 .5
FB    7 99 POLY(5) VB VC VE VLP VLN 0 24.60E6 -20E6 20E6 20E6 -20E6
GA    6  0 11 12 216.8E-6
GCM   0  6 10 99 6.855E-9
IEE  10  4 DC 15.16E-6
HLIM 90  0 VLIM 1K
Q1   11  2 13 QX
Q2   12  1 14 QX
R2    6  9 100.0E3
RC1   3 11 4.613E3
RC2   3 12 4.613E3
RE1  13 10 1.152E3
RE2  14 10 1.152E3
REE  10 99 13.19E6
RO1   8  5 37.50
RO2   7 99 37.50
RP    3  4 12.94E3
VB    9  0 DC 0
VC    3 53 DC 2.6
VE   54  4 DC 2.6
VLIM  7  8 DC 0
VLP  91  0 DC 20
VLN   0 92 DC 20
.MODEL DX D(IS=800.0E-18)
.MODEL QX NPN(IS=800.0E-18 BF=93.75)
.ENDS
**********
*SRC=MC33071;MC33071;Opamps;Motorola;High Speed 13V/us
*SYM=ADOPAMP
* MC33071 OPERATIONAL AMPLIFIER 
*
* CONNECTIONS:
*    1 -  NON-INVERTING INPUT
*    2 -  INVERTING INPUT
*    3 -  POSITIVE POWER SUPPLY
*    4 -  NEGATIVE POWER SUPPLY
*    5 -  OUTPUT
*
.SUBCKT MC33071  1 2 3 4 5
*
C1   11 12 8.660E-12
C2    6  7 8.000E-12
CEE  10 99 1.231E-12
DC    5 53 DX
DE   54  5 DX
DLP  90 91 DX
DLN  92 90 DX
DP    4  3 DX
EGND 99  0 POLY(2) 3 0   4 0  0 .5 .5
FB    7 99 POLY(5) VB VC VE VLP VLN 0 8.842E6 
+  -9E6 9E6 9E6 -9E6
GA    6  0 11 12 251.3E-6
GCM   0  6 10 99 3.550E-9
IEE   3 10 DC 120.2E-6
HLIM 90  0 VLIM 1K
Q1   11  2 13 QX
Q2   12  1 14 QX
R2    6  9 100.0E3
RC1   4 11 3.979E3
RC2   4 12 3.979E3
RE1  13 10 3.542E3
RE2  14 10 3.542E3
REE  10 99 1.664E6
RO1   8  5 30
RO2   7 99 45
RP    3  4 34.09E3
VB    9  0 DC 0
VC    3 53 DC 1
VE   54  4 DC .3
VLIM  7  8 DC 0
VLP  91  0 DC 30
VLN   0 92 DC 30
.MODEL DX D(IS=800.0E-18)
.MODEL QX PNP(IS=800.0E-18 BF=600)
.ENDS
**********
*SRC=MC33072;MC33072;Opamps;Motorola;High Speed 13V/us
*SYM=ADOPAMP
* MC33072 OPERATIONAL AMPLIFIER 
*
* CONNECTIONS:
*    1 -  NON-INVERTING INPUT
*    2 -  INVERTING INPUT
*    3 -  POSITIVE POWER SUPPLY
*    4 -  NEGATIVE POWER SUPPLY
*    5 -  OUTPUT
*
.SUBCKT MC33072  1 2 3 4 5
*
C1   11 12 8.660E-12
C2    6  7 8.000E-12
CEE  10 99 1.231E-12
DC    5 53 DX
DE   54  5 DX
DLP  90 91 DX
DLN  92 90 DX
DP    4  3 DX
EGND 99  0 POLY(2) 3 0   4 0  0 .5 .5
FB    7 99 POLY(5) VB VC VE VLP VLN 0 8.842E6 
+  -9E6 9E6 9E6 -9E6
GA    6  0 11 12 251.3E-6
GCM   0  6 10 99 3.550E-9
IEE   3 10 DC 120.2E-6
HLIM 90  0 VLIM 1K
Q1   11  2 13 QX
Q2   12  1 14 QX
R2    6  9 100.0E3
RC1   4 11 3.979E3
RC2   4 12 3.979E3
RE1  13 10 3.542E3
RE2  14 10 3.542E3
REE  10 99 1.664E6
RO1   8  5 30
RO2   7 99 45
RP    3  4 34.09E3
VB    9  0 DC 0
VC    3 53 DC 1
VE   54  4 DC .3
VLIM  7  8 DC 0
VLP  91  0 DC 30
VLN   0 92 DC 30
DESD1 1  3 DX
DESD2 2  3 DX
.MODEL DX D(IS=800.0E-18)
.MODEL QX PNP(IS=800.0E-18 BF=600)
.ENDS
**********
*SRC=MC33074;MC33074;Opamps;Motorola;High Speed 13V/us
*SYM=ADOPAMP
* MC33074 OPERATIONAL AMPLIFIER 
*
* CONNECTIONS:
*    1 -  NON-INVERTING INPUT
*    2 -  INVERTING INPUT
*    3 -  POSITIVE POWER SUPPLY
*    4 -  NEGATIVE POWER SUPPLY
*    5 -  OUTPUT
*
.SUBCKT MC33074  1 2 3 4 5
*
C1   11 12 8.660E-12
C2    6  7 8.000E-12
CEE  10 99 1.231E-12
DC    5 53 DX
DE   54  5 DX
DLP  90 91 DX
DLN  92 90 DX
DP    4  3 DX
EGND 99  0 POLY(2) 3 0   4 0  0 .5 .5
FB    7 99 POLY(5) VB VC VE VLP VLN 0 8.842E6 
+  -9E6 9E6 9E6 -9E6
GA    6  0 11 12 251.3E-6
GCM   0  6 10 99 3.550E-9
IEE   3 10 DC 120.2E-6
HLIM 90  0 VLIM 1K
Q1   11  2 13 QX
Q2   12  1 14 QX
R2    6  9 100.0E3
RC1   4 11 3.979E3
RC2   4 12 3.979E3
RE1  13 10 3.542E3
RE2  14 10 3.542E3
REE  10 99 1.664E6
RO1   8  5 30
RO2   7 99 45
RP    3  4 34.09E3
VB    9  0 DC 0
VC    3 53 DC 1
VE   54  4 DC .3
VLIM  7  8 DC 0
VLP  91  0 DC 30
VLN   0 92 DC 30
DESD1 1  3 DX
DESD2 2  3 DX
.MODEL DX D(IS=800.0E-18)
.MODEL QX PNP(IS=800.0E-18 BF=600)
.ENDS
**********
*SRC=MC33076;MC33076;Opamps;Motorola;
*SYM=ADOPAMP
* MC33076 OPERATIONAL AMPLIFIER 
*
* CONNECTIONS:
*    1 -  NON-INVERTING INPUT
*    2 -  INVERTING INPUT
*    3 -  POSITIVE POWER SUPPLY
*    4 -  NEGATIVE POWER SUPPLY
*    5 -  OUTPUT
*
.SUBCKT MC33076  1 2 3 4 5
*
C1   11 12 30.302E-12
C2    6  7 18.00E-12
DC  500 53 DX
DE   54  500 DX
DLP  90 91 DX
DLN  92 90 DX
DP    4  3 DX
EGND 99  0 POLY(2) 3 0   4 0  0 .5 .5
FB    7 99 POLY(5) VB VC VE VLP VLN 0 20.21E6 
+  -20E6 20E6 20E6 -20E6
GA    6  0 11 12 395.8E-6
GCM   0  6 10 99 627.4E-12
IEE  10  4 DC 47.16E-6
HLIM 90  0 VLIM 1K
Q1   11  2 13 QX
Q2   12  1 14 QX
R2    6  9 100.0E3
RC1   3 11 2.526E3
RC2   3 12 2.526E3
RE1  13 10 1.410E3
RE2  14 10 1.410E3
REE  10 99 4.241E6
RO1   8  500 25
RO2   7 99 25
RP    3  4 13.93E3
VB    9  0 DC 0
VC    3 53 DC .92
VE   54  4 DC .86
VLIM  7  8 DC 0
VLP  91  0 DC 250
VLN   0 92 DC 250
EVCS1  800  500  8  500 1.0
EVCS2  500  820  810  500 1.0
RVS1   800  810  75
CVS    810  500  500P
RVS2   820   5   50
DESD1  1  3 DX
DESD2  2  3 DX
.MODEL DX D(IS=800.0E-18)
.MODEL QX NPN(IS=800.0E-18 BF=130)
.ENDS
**********
*SRC=MC33077;MC33077;Opamps;Motorola;
*SYM=ADOPAMP
* MC33077 OPERATIONAL AMPLIFIER 
*
* CONNECTIONS:
*    1 -  NON-INVERTING INPUT
*    2 -  INVERTING INPUT
*    3 -  POSITIVE POWER SUPPLY
*    4 -  NEGATIVE POWER SUPPLY
*    5 -  OUTPUT
*
.SUBCKT MC33077  1 2 3 4 5
*
C1   11 12 3.851E-12
C2    6  7 9.50E-12
DC    5 53 DX
DE   54  5 DX
DLP  90 91 DX
DLN  92 90 DX
DP    4  3 DX
EGND 99  0 POLY(2) 3 0   4 0  0 .5 .5
FB    7 99 POLY(5) VB VC VE VLP VLN 0 42.87E6
+  -40E6 40E6 40E6 -40E6
GA    6  0 11 12 541.9E-6
GCM   0  6 10 99 2.421E-9
IEE   3 10 DC 104.1E-6
HLIM 90  0 VLIM 1K
Q1   11  2 13 QX
Q2   12  1 14 QX
R2    6  9 100.0E3
RC1   4 11 1.845E3
RC2   4 12 1.845E3
RE1  13 10 1.338E3
RE2  14 10 1.338E3
REE  10 99 1.922E6
RO1   8  5 18
RO2   7 99 18
RP    3  4 8.833E3
VB    9  0 DC 0
VC    3 53 DC 2.0
VE   54  4 DC 1.5
VLIM  7  8 DC 0
VLP  91  0 DC 30
VLN   0 92 DC 30
.MODEL DX D(IS=800.0E-18)
.MODEL QX PNP(IS=800.0E-18 BF=178.4)
.ENDS
**********
*SRC=MC33078;MC33078;Opamps;Motorola;PNP Input
*SYM=ADOPAMP
* MC33078 OPERATIONAL AMPLIFIER 
*
* CONNECTIONS:
*    1 -  NON-INVERTING INPUT
*    2 -  INVERTING INPUT
*    3 -  POSITIVE POWER SUPPLY
*    4 -  NEGATIVE POWER SUPPLY
*    5 -  OUTPUT
*
.SUBCKT MC33078  1 2 3 4 5
*
C1   11 12 3.501E-12
C2    6  7 10.00E-12
DC    5 53 DX
DE   54  5 DX
DLP  90 91 DX
DLN  92 90 DX
DP    4  3 DX
EGND 99  0 POLY(2) 3 0   4 0  0 .5 .5
FB    7 99 POLY(5) VB VC VE VLP VLN 0 27.96E6 
+  -30E6 30E6 30E6 -30E6
GA    6  0 11 12 565.5E-6
GCM   0  6 10 99 5.655E-9
ISS  10  4 DC 70.00E-6
HLIM 90  0 VLIM 1K
J1   11  2 10 JX
J2   12  1 10 JX
R2    6  9 100.0E3
RD1   3 11 1.768E3
RD2   3 12 1.768E3
RO1   8  5 10
RO2   7 99 20
RP    3  4 29.03E3
RSS  10 99 2.857E6
VB    9  0 DC 0
VC    3 53 DC .9
VE   54  4 DC .4
VLIM  7  8 DC 0
VLP  91  0 DC 30
VLN   0 92 DC 30
.MODEL DX D(IS=800.0E-18)
.MODEL JX NJF(IS=150.0E-9 BETA=4.568E-3 
+  VTO=-1)
.ENDS
**********
*SRC=MC33079;MC33079;Opamps;Motorola;PNP Input
*SYM=ADOPAMP
* MC33079 OPERATIONAL AMPLIFIER 
*
* CONNECTIONS:
*    1 - NON-INVERTING INPUT
*    2 - INVERTING INPUT
*    3 - POSITIVE POWER SUPPLY
*    4 - NEGATIVE POWER SUPPLY
*    5 - OUTPUT
*
.SUBCKT MC33079  1 2 3 4 5
*
C1   11 12 3.501E-12
C2    6  7 10.00E-12
DC    5 53 DX
DE   54  5 DX
DLP  90 91 DX
DLN  92 90 DX
DP    4  3 DX
EGND 99  0 POLY(2) 3 0   4 0  0 .5 .5
FB    7 99 POLY(5) VB VC VE VLP VLN 0 27.96E6 
+  -30E6 30E6 30E6 -30E6
GA    6  0 11 12 565.5E-6
GCM   0  6 10 99 5.655E-9
ISS  10  4 DC 70.00E-6
HLIM 90  0 VLIM 1K
J1   11  2 10 JX
J2   12  1 10 JX
R2    6  9 100.0E3
RD1   3 11 1.768E3
RD2   3 12 1.768E3
RO1   8  5 10
RO2   7 99 20
RP    3  4 29.03E3
RSS  10 99 2.857E6
VB    9  0 DC 0
VC    3 53 DC .9
VE   54  4 DC .4
VLIM  7  8 DC 0
VLP  91  0 DC 30
VLN   0 92 DC 30
.MODEL DX D(IS=800.0E-18)
.MODEL JX NJF(IS=150.0E-9 BETA=4.568E-3 
+  VTO=-1)
.ENDS
**********
*SRC=MC33171;MC33171;Opamps;Motorola;Low Power
*SYM=ADOPAMP
* MC33171 OPERATIONAL AMPLIFIER 
*
* CONNECTIONS:
*    1 -  NON-INVERTING INPUT
*    2 -  INVERTING INPUT
*    3 -  POSITIVE POWER SUPPLY
*    4 -  NEGATIVE POWER SUPPLY
*    5 -  OUTPUT
*
.SUBCKT MC33171  1 2 3 4 5
*
C1   11 12 8.660E-12
C2    6  7 5.500E-12
CEE  10 99 4.976E-12
DC    5 53 DX
DE   54  5 DX
DLP  90 91 DX
DLN  92 90 DX
DP    4  3 DX
EGND 99  0 POLY(2) 3 0   4 0  0 .5 .5
FB    7 99 POLY(5) VB VC VE VLP VLN 0 89.31E6 
+  -90E6 90E6 90E6 -90E6
GA    6  0 11 12 62.20E-6
GCM   0  6 10 99 1.967E-9
IEE   3 10 DC 22.04E-6
HLIM 90  0 VLIM 1K
Q1   11  2 13 QX
Q2   12  1 14 QX
R2    6  9 100.0E3
RC1   4 11 16.08E3
RC2   4 12 16.08E3
RE1  13 10 13.70E3
RE2  14 10 13.70E3
REE  10 99 9.074E6
RO1   8  5 110
RO2   7 99 90
RP    3  4 291.3E3
VB    9  0 DC 0
VC    3 53 DC .8
VE   54  4 DC .8
VLIM  7  8 DC 0
VLP  91  0 DC 10
VLN   0 92 DC 10
DESD1  1  3 DX
DESD2  2  3 DX
.MODEL DX D(IS=800.0E-18)
.MODEL QX PNP(IS=800.0E-18 BF=550)
.ENDS
**********
*SRC=MC33172;MC33172;Opamps;Motorola;Low Power
*SYM=ADOPAMP
* MC33172 OPERATIONAL AMPLIFIER 
*
* CONNECTIONS:
*    1 -  NON-INVERTING INPUT
*    2 -  INVERTING INPUT
*    3 -  POSITIVE POWER SUPPLY
*    4 -  NEGATIVE POWER SUPPLY
*    5 -  OUTPUT
*
.SUBCKT MC33172  1 2 3 4 5
*
C1   11 12 8.660E-12
C2    6  7 5.500E-12
CEE  10 99 4.976E-12
DC    5 53 DX
DE   54  5 DX
DLP  90 91 DX
DLN  92 90 DX
DP    4  3 DX
EGND 99  0 POLY(2) 3 0   4 0  0 .5 .5
FB    7 99 POLY(5) VB VC VE VLP VLN 0 89.31E6 
+  -90E6 90E6 90E6 -90E6
GA    6  0 11 12 62.20E-6
GCM   0  6 10 99 1.967E-9
IEE   3 10 DC 22.04E-6
HLIM 90  0 VLIM 1K
Q1   11  2 13 QX
Q2   12  1 14 QX