**********
* Copyright Intusoft 1994-1997
* All Rights Reserved
**********
**********
*SRC=592B35;M592B35;Varistors;Philips;35 Volts
*SYM=MOV
.SUBCKT M592B35 1 4
*
* TEST FOR MOV PHILLIPS 592 SERIES 35 VOLTS
* (V1,I1)=(110V,1A)
* (V2,I2)=(60V,1mA)
* Ron=.3
* Alpha=11
* K=2.7564E-23
*
L1 1 2 10NH
ROFF 2 3 1G
C1 2 3 560P
G1 2 3 6 0 1
E1 6 0 2 3 0 0 0 0 0 0 0 0 0 0 0 2.7564E-23
R1 6 0 100MEG
RON 3 4 .3
.ENDS
**********
*SRC=592B30;M592B30;Varistors;Philips;30 Volts
*SYM=MOV
.SUBCKT M592B30 1 4
*
* TEST FOR MOV PHILLIPS 592 SERIES 30 VOLTS
* (V2,I2)=(90V,1A)
* (V1,I1)=(50V,1mA)
* Ron=.35
* Alpha=12
* K=4.096E-24
*
L1 1 2 10NH
ROFF 2 3 1G
C1 2 3 700P
G1 2 3 POLY(2) 6 0 10 0 0 0 0 0 1
E1 6 0 2 3 0 0 0 0 0 0 0 0 0 0 0 0 4.096E-24
R1 6 0 100MEG
RON 3 4 .35
G2 0 7 2 3 1
D1 7 8 DMOD
D2 0 8 DMOD
D3 9 7 DMOD
D4 9 0 DMOD
R2 8 9 1
G3 0 10 2 3 1
R3 10 0 100MEG
G4 10 0 POLY(2) 10 0 8 9 0 0 0 0 1
.MODEL DMOD D
.ENDS
**********
*SRC=592B40;M592B40;Varistors;Philips;40 Volts
*SYM=MOV
.SUBCKT M592B40 1 4
*
* TEST FOR MOV PHILLIPS 592 SERIES 40 VOLTS
* (V2,I2)=(250V,100A)
* (V1,I1)=(50V,1mA)
* Ron=.025
* Alpha=10
* K=1.775E-22
*
L1 1 2 10NH
ROFF 2 3 1G
C1 2 3 80P
G1 2 3 POLY(2) 6 0 10 0 0 0 0 0 1
E1 6 0 2 3 0 0 0 0 0 0 0 0 0 0 1.775E-22
R1 6 0 100MEG
RON 3 4 .025
G2 0 7 2 3 1
D1 7 8 DMOD
D2 0 8 DMOD
D3 9 7 DMOD
D4 9 0 DMOD
R2 8 9 1
G3 0 10 2 3 1
R3 10 0 100MEG
G4 10 0 POLY(2) 10 0 8 9 0 0 0 0 1
.MODEL DMOD D
.ENDS
**********
*SRC=592A14;M592A14;Varistors;Philips;14 Volts
*SYM=MOV
.SUBCKT M592A14 1 4
*
* TEST FOR MOV PHILLIPS 592 SERIES 14 VOLTS
* (V2,I2)=(72V,50A)
* (V1,I1)=(27V,1mA)
* Ron=.005
* Alpha=11
* K=1.7989E-19
*
L1 1 2 10NH
ROFF 2 3 1G
C1 2 3 1.3N
G1 2 3 6 0 1
E1 6 0 2 3 0 0 0 0 0 0 0 0 0 0 0 3.223E-19
R1 6 0 100MEG
RON 3 4 .104
.ENDS
**********
*SRC=592A17;M592A17;Varistors;Philips;17 Volts
*SYM=MOV
.SUBCKT M592A17 1 4
*
* TEST FOR MOV PHILLIPS 592 SERIES 17 VOLTS
* (V2,I2)=(90V,50A)
* (V1,I1)=(30V,1mA)
* Ron=.018
* Alpha=10
* K=1.6935E-18
*
L1 1 2 10NH
ROFF 2 3 1G
C1 2 3 1.05N
G1 2 3 POLY(2) 6 0 10 0 0 0 0 0 1
E1 6 0 2 3 0 0 0 0 0 0 0 0 0 0 2.4935E-18
R1 6 0 100MEG
RON 3 4 .128
G2 0 7 2 3 1
D1 7 8 DMOD
D2 0 8 DMOD
D3 9 7 DMOD
D4 9 0 DMOD
R2 8 9 1
G3 0 10 2 3 1
R3 10 0 100MEG
G4 10 0 POLY(2) 10 0 8 9 0 0 0 0 1
.MODEL DMOD D
.ENDS
**********
*SRC=592A20;M592A20;Varistors;Philips;20 Volts
*SYM=MOV
.SUBCKT M592A20 1 4
*
* TEST FOR MOV PHILLIPS 592 SERIES 20 VOLTS
* (V2,I2)=(100V,50A)
* (V1,I1)=(35V,1mA)
* Ron=.02
* Alpha=10
* K=3.6251E-19
*
L1 1 2 10NH
ROFF 2 3 1G
C1 2 3 900P
G1 2 3 POLY(2) 6 0 10 0 0 0 0 0 1
E1 6 0 2 3 0 0 0 0 0 0 0 0 0 0 4.6251E-19
R1 6 0 100MEG
RON 3 4 .008
G2 0 7 2 3 1
D1 7 8 DMOD
D2 0 8 DMOD
D3 9 7 DMOD
D4 9 0 DMOD
R2 8 9 1
G3 0 10 2 3 1
R3 10 0 100MEG
G4 10 0 POLY(2) 10 0 8 9 0 0 0 0 1
.MODEL DMOD D
.ENDS
**********
*SRC=592A25;M592A25;Varistors;Philips;25 Volts
*SYM=MOV
.SUBCKT M592A25 1 4
*
* TEST FOR MOV PHILLIPS 592 SERIES 25 VOLTS
* (V2,I2)=(110V,50A)
* (V1,I1)=(42V,1mA)
* Ron=.022
* Alpha=11
* K=1.3940E-21
*
L1 1 2 10NH
ROFF 2 3 1G
C1 2 3 500P
G1 2 3 6 0 1
E1 6 0 2 3 0 0 0 0 0 0 0 0 0 2.394E-21
R1 6 0 100MEG
RON 3 4 .122
.ENDS
**********
*SRC=592C460;M592C460;Varistors;Philips;40 Volts
*SYM=MOV
.SUBCKT M592C460 1 4
*
* TEST FOR MOV PHILLIPS 592 SERIES C 460 VOLTS
* (V2,I2)=(2.5KV,500A)
* (V1,I1)=(790V,1mA)
* Ron=.05
* Alpha=11
* K=1.337E-35
*
L1 1 2 10NH
ROFF 2 3 1G
C1 2 3 500P
G1 2 3 6 0 1
E1 6 0 2 3 0 0 0 0 0 0 0 0 0 0 0 3.337E-35
R1 6 0 100MEG
RON 3 4 .122
.ENDS
**********
*SRC=V130LA20;V130LA20;Varistors;Harris;130V
*SYM=MOV
.SUBCKT V130LA20 1 7 
* Part # V130LA20A
* (I1,V1) = (1.00E-002A,2.55E+002V) (I2,V2) = (3.00E+001A,3.00E+002V)
* alpha = 5.251159E+001
* k     = 4.254E-129
LIN 1 2 5NH
B1 5 0 V = (ABS(V(2)-V(3)) * 1.461E-002)
RB1 5 0 1MEG
BUPTURN 100 0 V = ABS(I(VC)) < 425 ? 52 : 52 - ((ABS(I(VC))/425)-1)^3
RUPTURN 100 0 1MEG
B2 6 0 V = 1.0E-032 * ( V(5) ^ V(100))
RB2 6 0 1MEG
B3 2 3 I = V(2,3) > 0 ? V(6) : -1 * V(6)
ROFF 2 3 1G
C1 2 3 1600P
RON 3 4 0.0500
VC 4 14
LOUT 14 7 5NH
.ENDS
**********
*SRC=V150LA20;V150LA20;Varistors;Harris;150V
*SYM=MOV
.SUBCKT V150LA20 1 7 
* Part # V150LA20A
* (I1,V1) = (1.00E-002A,3.00E+002V) (I2,V2) = (1.00E+002A,4.00E+002V)
* alpha = 3.317467E+001
* k     = 6.642E-085
LIN 1 2 5NH
B1 5 0 V = (ABS(V(2)-V(3)) * 2.674E-002)
RB1 5 0 1MEG
BUPTURN 100 0 V = ABS(I(VC)) < 500 ? 33 : 33 - ((ABS(I(VC))/500)-1)^3
RUPTURN 100 0 1MEG
B2 6 0 V = 1.0E-032 * ( V(5) ^ V(100))
RB2 6 0 1MEG
B3 2 3 I = V(2,3) > 0 ? V(6) : -1 * V(6)
ROFF 2 3 1G
C1 2 3 1600P
RON 3 4 0.0200
VC 4 14
LOUT 14 7 5NH
.ENDS
**********
*SRC=V250LA40;V250LA40;Varistors;Harris;250V
*SYM=MOV
.SUBCKT V250LA40 1 7 
* Part # V250LA40A
* (I1,V1) = (1.00E-002A,4.95E+002V) (I2,V2) = (1.00E+002A,6.50E+002V)
* alpha = 3.510516E+001
* k     = 2.544E-097
LIN 1 2 5NH
B1 5 0 V = (ABS(V(2)-V(3)) * 1.445E-002)
RB1 5 0 1MEG
BUPTURN 100 0 V = ABS(I(VC)) < 475 ? 35 : 35 - ((ABS(I(VC))/475)-1)^3
RUPTURN 100 0 1MEG
B2 6 0 V = 1.0E-032 * ( V(5) ^ V(100))
RB2 6 0 1MEG
B3 2 3 I = V(2,3) > 0 ? V(6) : -1 * V(6)
ROFF 2 3 1G
C1 2 3 1000P
RON 3 4 0.0325
VC 4 14
LOUT 14 7 5NH
.ENDS
**********
*SRC=V275LA40;V275LA40;Varistors;Harris;275V
*SYM=MOV
.SUBCKT V275LA40 1 7 
* Part # V275LA40A
* (I1,V1) = (1.00E-002A,5.05E+002V) (I2,V2) = (1.00E+002A,7.00E+002V)
* alpha = 2.910322E+001
* k     = 2.116E-081
LIN 1 2 5NH
B1 5 0 V = (ABS(V(2)-V(3)) * 2.126E-002)
RB1 5 0 1MEG
BUPTURN 100 0 V = ABS(I(VC)) < 475 ? 29 : 29 - ((ABS(I(VC))/475)-1)^3
RUPTURN 100 0 1MEG
B2 6 0 V = 1.0E-032 * ( V(5) ^ V(100))
RB2 6 0 1MEG
B3 2 3 I = V(2,3) > 0 ? V(6) : -1 * V(6)
ROFF 2 3 1G
C1 2 3 900P
RON 3 4 0.0350
VC 4 14
LOUT 14 7 5NH
.ENDS
**********
*SRC=V36ZA80;V36ZA80;Varistors;Harris;36V
*SYM=MOV
.SUBCKT V36ZA80 1 7 
* (I1,V1) = (1.00E-002A,4.40E+001V) (I2,V2) = (1.00E+001A,6.00E+001V)
* alpha = 2.301783E+001
* k     = 1.484E-040
LIN 1 2 5NH
B1 5 0 V = (ABS(V(2)-V(3)) * 4.570E-001)
RB1 5 0 1MEG
BUPTURN 100 0 V = ABS(I(VC)) < 400 ? 23 : 23 - ((ABS(I(VC))/400)-1)^3
RUPTURN 100 0 1MEG
B2 6 0 V = 1.0E-032 * ( V(5) ^ V(100))
RB2 6 0 1MEG
B3 2 3 I = V(2,3) > 0 ? V(6) : -1 * V(6)
ROFF 2 3 1G
C1 2 3 12000P
RON 3 4 0.0300
VC 4 14
LOUT 14 7 5NH
.ENDS
**********
*SRC=V151BA60;V151BA60;Varistors;Harris;150V
*SYM=MOV
.SUBCKT V151BA60 1 7 
* (I1,V1) = (1.00E-001A,3.10E+002V) (I2,V2) = (2.00E+002A,4.00E+002V)
* alpha = 3.104412E+001
* k     = 4.548E-079
LIN 1 2 5NH
B1 5 0 V = (ABS(V(2)-V(3)) * 3.215E-002)
RB1 5 0 1MEG
BUPTURN 100 0 V = ABS(I(VC)) < 4000 ? 31 : 31 - ((ABS(I(VC))/4000)-1)^3
RUPTURN 100 0 1MEG
B2 6 0 V = 1.0E-032 * ( V(5) ^ V(100))
RB2 6 0 1MEG
B3 2 3 I = V(2,3) > 0 ? V(6) : -1 * V(6)
ROFF 2 3 1G
C1 2 3 16000P
RON 3 4 0.0100
VC 4 14
LOUT 14 7 5NH
.ENDS
**********
*SRC=V131BA60;V131BA60;Varistors;Harris;130V
*SYM=MOV
.SUBCKT V131BA60 1 7 
* (I1,V1) = (1.00E-001A,2.40E+002V) (I2,V2) = (1.00E+002A,3.20E+002V)
* alpha = 2.488100E+001
* k     = 5.997E-061
LIN 1 2 5NH
B1 5 0 V = (ABS(V(2)-V(3)) * 7.340E-002)
RB1 5 0 1MEG
BUPTURN 100 0 V = ABS(I(VC)) < 4000 ? 24 : 24 - ((ABS(I(VC))/4000)-1)^3
RUPTURN 100 0 1MEG
B2 6 0 V = 1.0E-032 * ( V(5) ^ V(100))
RB2 6 0 1MEG
B3 2 3 I = V(2,3) > 0 ? V(6) : -1 * V(6)
ROFF 2 3 1G
C1 2 3 20000P
RON 3 4 0.0160
VC 4 14
LOUT 14 7 5NH
.ENDS
**********
*SRC=V131HA32;V131HA32;Varistors;Harris;130V
*SYM=MOV
.SUBCKT V131HA32 1 7 
* (I1,V1) = (1.00E-002A,2.70E+002V) (I2,V2) = (1.00E+002A,3.35E+002V)
* alpha = 4.478469E+001
* k     = 1.295E-111
LIN 1 2 5NH
B1 5 0 V = (ABS(V(2)-V(3)) * 1.732E-002)
RB1 5 0 1MEG
BUPTURN 100 0 V = ABS(I(VC)) < 1000 ? 44 : 44 - ((ABS(I(VC))/1000)-1)^3
RUPTURN 100 0 1MEG
B2 6 0 V = 1.0E-032 * ( V(5) ^ V(100))
RB2 6 0 1MEG
B3 2 3 I = V(2,3) > 0 ? V(6) : -1 * V(6)
ROFF 2 3 1G
C1 2 3 4700P
RON 3 4 0.0168
VC 4 14
LOUT 14 7 5NH
.ENDS
**********
*SRC=V131HA40;V131HA40;Varistors;Harris;130V
*SYM=MOV
.SUBCKT V131HA40 1 7 
* (I1,V1) = (1.00E-001A,2.50E+002V) (I2,V2) = (1.00E+002A,3.25E+002V)
* alpha = 2.737762E+001
* k     = 2.239E-067
LIN 1 2 5NH
B1 5 0 V = (ABS(V(2)-V(3)) * 5.425E-002)
RB1 5 0 1MEG
BUPTURN 100 0 V = ABS(I(VC)) < 2000 ? 27 : 27 - ((ABS(I(VC))/2000)-1)^3
RUPTURN 100 0 1MEG
B2 6 0 V = 1.0E-032 * ( V(5) ^ V(100))
RB2 6 0 1MEG
B3 2 3 I = V(2,3) > 0 ? V(6) : -1 * V(6)
ROFF 2 3 1G
C1 2 3 10000P
RON 3 4 0.0163
VC 4 14
LOUT 14 7 5NH
.ENDS
**********
*SRC=V151HA32;V151HA32;Varistors;Harris;150V
*SYM=MOV
.SUBCKT V151HA32 1 7 
* (I1,V1) = (2.00E-003A,3.00E+002V) (I2,V2) = (1.00E+002A,4.00E+002V)
* alpha = 3.897169E+001
* k     = 5.800E-100
LIN 1 2 5NH
B1 5 0 V = (ABS(V(2)-V(3)) * 1.882E-002)
RB1 5 0 1MEG
BUPTURN 100 0 V = ABS(I(VC)) < 2000 ? 38 : 38 - ((ABS(I(VC))/2000)-1)^3
RUPTURN 100 0 1MEG
B2 6 0 V = 1.0E-032 * ( V(5) ^ V(100))
RB2 6 0 1MEG
B3 2 3 I = V(2,3) > 0 ? V(6) : -1 * V(6)
ROFF 2 3 1G
C1 2 3 4000P
RON 3 4 0.0200
VC 4 14
LOUT 14 7 5NH
.ENDS
**********
*SRC=V151HA40;V151HA40;Varistors;Harris;150V
*SYM=MOV
.SUBCKT V151HA40 1 7 
* (I1,V1) = (1.00E-001A,3.10E+002V) (I2,V2) = (1.00E+002A,4.00E+002V)
* alpha = 2.821312E+001
* k     = 5.139E-072
LIN 1 2 5NH
B1 5 0 V = (ABS(V(2)-V(3)) * 4.050E-002)
RB1 5 0 1MEG
BUPTURN 100 0 V = ABS(I(VC)) < 2000 ? 28 : 28 - ((ABS(I(VC))/2000)-1)^3
RUPTURN 100 0 1MEG
B2 6 0 V = 1.0E-032 * ( V(5) ^ V(100))
RB2 6 0 1MEG
B3 2 3 I = V(2,3) > 0 ? V(6) : -1 * V(6)
ROFF 2 3 1G
C1 2 3 8000P
RON 3 4 0.0200
VC 4 14
LOUT 14 7 5NH
.ENDS
**********
*SRC=V251HA32;V251HA32;Varistors;Harris;250V
*SYM=MOV
.SUBCKT V251HA32 1 7 
* (I1,V1) = (2.00E-003A,5.00E+002V) (I2,V2) = (2.00E+001A,6.00E+002V)
* alpha = 5.346418E+001
* k     = 1.006E-147
LIN 1 2 5NH
B1 5 0 V = (ABS(V(2)-V(3)) * 7.064E-003)
RB1 5 0 1MEG
BUPTURN 100 0 V = ABS(I(VC)) < 2000 ? 53 : 53 - ((ABS(I(VC))/2000)-1)^3
RUPTURN 100 0 1MEG
B2 6 0 V = 1.0E-032 * ( V(5) ^ V(100))
RB2 6 0 1MEG
B3 2 3 I = V(2,3) > 0 ? V(6) : -1 * V(6)
ROFF 2 3 1G
C1 2 3 2500P
RON 3 4 0.1500
VC 4 14
LOUT 14 7 5NH
.ENDS
**********
*SRC=V251HA40;V251HA40;Varistors;Harris;250V
*SYM=MOV
.SUBCKT V251HA40 1 7 
* (I1,V1) = (1.00E-001A,4.60E+002V) (I2,V2) = (4.00E+001A,6.00E+002V)
* alpha = 2.343594E+001
* k     = 3.942E-064
LIN 1 2 5NH
B1 5 0 V = (ABS(V(2)-V(3)) * 4.571E-002)
RB1 5 0 1MEG
BUPTURN 100 0 V = ABS(I(VC)) < 2000 ? 23 : 23 - ((ABS(I(VC))/2000)-1)^3
RUPTURN 100 0 1MEG
B2 6 0 V = 1.0E-032 * ( V(5) ^ V(100))
RB2 6 0 1MEG
B3 2 3 I = V(2,3) > 0 ? V(6) : -1 * V(6)
ROFF 2 3 1G
C1 2 3 5000P
RON 3 4 0.0750
VC 4 14
LOUT 14 7 5NH
.ENDS
**********
*SRC=V271HA32;V271HA32;Varistors;Harris;270V
*SYM=MOV
.SUBCKT V271HA32 1 7 
* (I1,V1) = (2.00E-002A,5.30E+002V) (I2,V2) = (3.00E+001A,7.00E+002V)
* alpha = 2.727257E+001
* k     = 1.007E-076
LIN 1 2 5NH
B1 5 0 V = (ABS(V(2)-V(3)) * 2.437E-002)
RB1 5 0 1MEG
BUPTURN 100 0 V = ABS(I(VC)) < 2000 ? 27 : 27 - ((ABS(I(VC))/2000)-1)^3
RUPTURN 100 0 1MEG
B2 6 0 V = 1.0E-032 * ( V(5) ^ V(100))
RB2 6 0 1MEG
B3 2 3 I = V(2,3) > 0 ? V(6) : -1 * V(6)
ROFF 2 3 1G
C1 2 3 2200P
RON 3 4 0.1167
VC 4 14
LOUT 14 7 5NH
.ENDS
**********
*SRC=V271HA40;V271HA40;Varistors;Harris;270V
*SYM=MOV
.SUBCKT V271HA40 1 7 
* (I1,V1) = (1.00E-001A,5.30E+002V) (I2,V2) = (5.00E+001A,7.00E+002V)
* alpha = 2.317561E+001
* k     = 7.299E-065
LIN 1 2 5NH
B1 5 0 V = (ABS(V(2)-V(3)) * 4.105E-002)
RB1 5 0 1MEG
BUPTURN 100 0 V = ABS(I(VC)) < 2000 ? 23 : 23 - ((ABS(I(VC))/2000)-1)^3
RUPTURN 100 0 1MEG
B2 6 0 V = 1.0E-032 * ( V(5) ^ V(100))
RB2 6 0 1MEG
B3 2 3 I = V(2,3) > 0 ? V(6) : -1 * V(6)
ROFF 2 3 1G
C1 2 3 4500P
RON 3 4 0.0700
VC 4 14
LOUT 14 7 5NH
.ENDS
**********
*SRC=V321HA32;V321HA32;Varistors;Harris;320V
*SYM=MOV
.SUBCKT V321HA32 1 7 
* (I1,V1) = (2.00E-002A,6.10E+002V) (I2,V2) = (2.00E+001A,8.00E+002V)
* alpha = 2.645611E+001
* k     = 4.093E-076
LIN 1 2 5NH
B1 5 0 V = (ABS(V(2)-V(3)) * 2.291E-002)
RB1 5 0 1MEG
BUPTURN 100 0 V = ABS(I(VC)) < 2000 ? 26 : 26 - ((ABS(I(VC))/2000)-1)^3
RUPTURN 100 0 1MEG
B2 6 0 V = 1.0E-032 * ( V(5) ^ V(100))
RB2 6 0 1MEG
B3 2 3 I = V(2,3) > 0 ? V(6) : -1 * V(6)
ROFF 2 3 1G
C1 2 3 1900P
RON 3 4 0.2000
VC 4 14
LOUT 14 7 5NH
.ENDS
**********
*SRC=V321HA40;V321HA40;Varistors;Harris;320V
*SYM=MOV
.SUBCKT V321HA40 1 7 
* (I1,V1) = (1.00E-001A,6.10E+002V) (I2,V2) = (1.00E+002A,8.00E+002V)
* alpha = 2.645611E+001
* k     = 2.046E-075
LIN 1 2 5NH
B1 5 0 V = (ABS(V(2)-V(3)) * 2.435E-002)
RB1 5 0 1MEG
BUPTURN 100 0 V = ABS(I(VC)) < 1000 ? 26 : 26 - ((ABS(I(VC))/1000)-1)^3
RUPTURN 100 0 1MEG
B2 6 0 V = 1.0E-032 * ( V(5) ^ V(100))
RB2 6 0 1MEG
B3 2 3 I = V(2,3) > 0 ? V(6) : -1 * V(6)
ROFF 2 3 1G
C1 2 3 3800P
RON 3 4 0.0400
VC 4 14
LOUT 14 7 5NH
.ENDS
**********
*SRC=V421HA32;V421HA32;Varistors;Harris;420V
*SYM=MOV
.SUBCKT V421HA32 1 7 
* (I1,V1) = (2.00E-002A,8.60E+002V) (I2,V2) = (2.00E+001A,1.00E+003V)
* alpha = 4.907033E+001
* k     = 2.015E-146
LIN 1 2 5NH
B1 5 0 V = (ABS(V(2)-V(3)) * 4.820E-003)
RB1 5 0 1MEG
BUPTURN 100 0 V = ABS(I(VC)) < 1000 ? 49 : 49 - ((ABS(I(VC))/1000)-1)^3
RUPTURN 100 0 1MEG
B2 6 0 V = 1.0E-032 * ( V(5) ^ V(100))
RB2 6 0 1MEG
B3 2 3 I = V(2,3) > 0 ? V(6) : -1 * V(6)
ROFF 2 3 1G
C1 2 3 1500P
RON 3 4 0.2500
VC 4 14
LOUT 14 7 5NH
.ENDS
**********
*SRC=V421HA40;V421HA40;Varistors;Harris;420V
*SYM=MOV
.SUBCKT V421HA40 1 7 
* (I1,V1) = (1.00E-001A,8.30E+002V) (I2,V2) = (1.00E+001A,1.00E+003V)
* alpha = 2.612429E+001
* k     = 5.510E-078
LIN 1 2 5NH
B1 5 0 V = (ABS(V(2)-V(3)) * 1.852E-002)
RB1 5 0 1MEG
BUPTURN 100 0 V = ABS(I(VC)) < 1500 ? 26 : 26 - ((ABS(I(VC))/1500)-1)^3
RUPTURN 100 0 1MEG
B2 6 0 V = 1.0E-032 * ( V(5) ^ V(100))
RB2 6 0 1MEG
B3 2 3 I = V(2,3) > 0 ? V(6) : -1 * V(6)
ROFF 2 3 1G
C1 2 3 3000P
RON 3 4 0.5000
VC 4 14
LOUT 14 7 5NH
.ENDS
**********
*SRC=V481HA32;V481HA32;Varistors;Harris;480V
*SYM=MOV
.SUBCKT V481HA32 1 7 
* (I1,V1) = (2.00E-002A,9.50E+002V) (I2,V2) = (2.00E+001A,1.20E+003V)
* alpha = 3.089826E+001
* k     = 1.970E-094
LIN 1 2 5NH
B1 5 0 V = (ABS(V(2)-V(3)) * 1.007E-002)
RB1 5 0 1MEG
BUPTURN 100 0 V = ABS(I(VC)) < 1000 ? 30 : 30 - ((ABS(I(VC))/1000)-1)^3
RUPTURN 100 0 1MEG
B2 6 0 V = 1.0E-032 * ( V(5) ^ V(100))
RB2 6 0 1MEG
B3 2 3 I = V(2,3) > 0 ? V(6) : -1 * V(6)
ROFF 2 3 1G
C1 2 3 1300P
RON 3 4 0.3000
VC 4 14
LOUT 14 7 5NH
.ENDS
**********
*SRC=V481HA40;V481HA40;Varistors;Harris;480V
*SYM=MOV
.SUBCKT V481HA40 1 7 
* (I1,V1) = (1.00E-001A,9.30E+002V) (I2,V2) = (2.00E+001A,1.25E+003V)
* alpha = 1.854738E+001
* k     = 8.758E-057
LIN 1 2 5NH
B1 5 0 V = (ABS(V(2)-V(3)) * 5.046E-002)
RB1 5 0 1MEG
BUPTURN 100 0 V = ABS(I(VC)) < 1000 ? 18 : 18 - ((ABS(I(VC))/1000)-1)^3
RUPTURN 100 0 1MEG
B2 6 0 V = 1.0E-032 * ( V(5) ^ V(100))
RB2 6 0 1MEG
B3 2 3 I = V(2,3) > 0 ? V(6) : -1 * V(6)
ROFF 2 3 1G
C1 2 3 2700P
RON 3 4 0.3125
VC 4 14
LOUT 14 7 5NH
.ENDS
**********
*SRC=V511HA32;V511HA32;Varistors;Harris;510V
*SYM=MOV
.SUBCKT V511HA32 1 7 
* (I1,V1) = (2.00E-002A,1.05E+003V) (I2,V2) = (2.00E+001A,1.30E+003V)
* alpha = 3.394078E+001
* k     = 5.748E-105
LIN 1 2 5NH
B1 5 0 V = (ABS(V(2)-V(3)) * 7.440E-003)
RB1 5 0 1MEG
BUPTURN 100 0 V = ABS(I(VC)) < 1000 ? 33 : 33 - ((ABS(I(VC))/1000)-1)^3
RUPTURN 100 0 1MEG
B2 6 0 V = 1.0E-032 * ( V(5) ^ V(100))
RB2 6 0 1MEG
B3 2 3 I = V(2,3) > 0 ? V(6) : -1 * V(6)
ROFF 2 3 1G
C1 2 3 1200P
RON 3 4 0.3250
VC 4 14
LOUT 14 7 5NH
.ENDS
**********
*SRC=V511HA40;V511HA40;Varistors;Harris;510V
*SYM=MOV
.SUBCKT V511HA40 1 7 
* (I1,V1) = (1.00E-001A,1.10E+003V) (I2,V2) = (2.00E+001A,1.30E+003V)
* alpha = 3.374644E+001
* k     = 2.311E-104
LIN 1 2 5NH
B1 5 0 V = (ABS(V(2)-V(3)) * 7.537E-003)
RB1 5 0 1MEG
BUPTURN 100 0 V = ABS(I(VC)) < 1000 ? 33 : 33 - ((ABS(I(VC))/1000)-1)^3
RUPTURN 100 0 1MEG
B2 6 0 V = 1.0E-032 * ( V(5) ^ V(100))
RB2 6 0 1MEG
B3 2 3 I = V(2,3) > 0 ? V(6) : -1 * V(6)
ROFF 2 3 1G
C1 2 3 2500P
RON 3 4 0.3250
VC 4 14
LOUT 14 7 5NH
.ENDS
**********
*SRC=V571HA32;V571HA32;Varistors;Harris;570V
*SYM=MOV
.SUBCKT V571HA32 1 7 
* (I1,V1) = (2.00E-002A,1.15E+003V) (I2,V2) = (2.00E+001A,1.45E+003V)
* alpha = 3.115092E+001
* k     = 9.068E-098
LIN 1 2 5NH
B1 5 0 V = (ABS(V(2)-V(3)) * 8.166E-003)
RB1 5 0 1MEG
BUPTURN 100 0 V = ABS(I(VC)) < 1000 ? 31 : 31 - ((ABS(I(VC))/1000)-1)^3
RUPTURN 100 0 1MEG
B2 6 0 V = 1.0E-032 * ( V(5) ^ V(100))
RB2 6 0 1MEG
B3 2 3 I = V(2,3) > 0 ? V(6) : -1 * V(6)
ROFF 2 3 1G
C1 2 3 1100P
RON 3 4 0.3625
VC 4 14
LOUT 14 7 5NH
.ENDS
**********
*SRC=V571HA40;V571HA40;Varistors;Harris;570V
*SYM=MOV
.SUBCKT V571HA40 1 7 
* (I1,V1) = (1.00E-001A,1.18E+003V) (I2,V2) = (1.00E+002A,1.30E+003V)
* alpha = 7.587123E+001
* k     = 1.182E-234
LIN 1 2 5NH
B1 5 0 V = (ABS(V(2)-V(3)) * 2.180E-003)
RB1 5 0 1MEG
BUPTURN 100 0 V = ABS(I(VC)) < 1000 ? 75 : 75 - ((ABS(I(VC))/1000)-1)^3
RUPTURN 100 0 1MEG
B2 6 0 V = 1.0E-032 * ( V(5) ^ V(100))
RB2 6 0 1MEG
B3 2 3 I = V(2,3) > 0 ? V(6) : -1 * V(6)
ROFF 2 3 1G
C1 2 3 2200P
RON 3 4 0.0650
VC 4 14
LOUT 14 7 5NH
.ENDS
**********
*SRC=V661HA32;V661HA32;Varistors;Harris;660V
*SYM=MOV
.SUBCKT V661HA32 1 7 
* (I1,V1) = (2.00E-002A,1.35E+003V) (I2,V2) = (1.00E+002A,1.70E+003V)
* alpha = 3.863140E+001
* k     = 2.354E-123
LIN 1 2 5NH
B1 5 0 V = (ABS(V(2)-V(3)) * 4.508E-003)
RB1 5 0 1MEG
BUPTURN 100 0 V = ABS(I(VC)) < 1000 ? 38 : 38 - ((ABS(I(VC))/1000)-1)^3
RUPTURN 100 0 1MEG
B2 6 0 V = 1.0E-032 * ( V(5) ^ V(100))
RB2 6 0 1MEG
B3 2 3 I = V(2,3) > 0 ? V(6) : -1 * V(6)
ROFF 2 3 1G
C1 2 3 1000P
RON 3 4 0.0850
VC 4 14
LOUT 14 7 5NH
.ENDS
**********
*SRC=V661HA40;V661HA40;Varistors;Harris;660V
*SYM=MOV
.SUBCKT V661HA40 1 7 
* (I1,V1) = (1.00E-001A,1.30E+003V) (I2,V2) = (1.00E+002A,1.70E+003V)
* alpha = 2.675209E+001
* k     = 4.960E-085
LIN 1 2 5NH
B1 5 0 V = (ABS(V(2)-V(3)) * 1.109E-002)
RB1 5 0 1MEG
BUPTURN 100 0 V = ABS(I(VC)) < 1000 ? 26 : 26 - ((ABS(I(VC))/1000)-1)^3
RUPTURN 100 0 1MEG
B2 6 0 V = 1.0E-032 * ( V(5) ^ V(100))
RB2 6 0 1MEG
B3 2 3 I = V(2,3) > 0 ? V(6) : -1 * V(6)
ROFF 2 3 1G
C1 2 3 2000P
RON 3 4 0.0850
VC 4 14
LOUT 14 7 5NH
.ENDS
**********
*SRC=V751HA32;V751HA32;Varistors;Harris;750V
*SYM=MOV
.SUBCKT V751HA32 1 7 
* (I1,V1) = (2.00E-002A,1.60E+003V) (I2,V2) = (3.00E+001A,2.00E+003V)
* alpha = 3.431935E+001
* k     = 2.176E-112
LIN 1 2 5NH
B1 5 0 V = (ABS(V(2)-V(3)) * 4.773E-003)
RB1 5 0 1MEG
BUPTURN 100 0 V = ABS(I(VC)) < 1000 ? 34 : 34 - ((ABS(I(VC))/1000)-1)^3
RUPTURN 100 0 1MEG
B2 6 0 V = 1.0E-032 * ( V(5) ^ V(100))
RB2 6 0 1MEG
B3 2 3 I = V(2,3) > 0 ? V(6) : -1 * V(6)
ROFF 2 3 1G
C1 2 3 800P
RON 3 4 0.3333
VC 4 14
LOUT 14 7 5NH
.ENDS
**********
*SRC=V751HA40;V751HA40;Varistors;Harris;750V
*SYM=MOV
.SUBCKT V751HA40 1 7 
* (I1,V1) = (1.00E-001A,1.50E+003V) (I2,V2) = (2.00E+002A,2.00E+003V)
* alpha = 2.737764E+001
* k     = 1.112E-088
LIN 1 2 5NH
B1 5 0 V = (ABS(V(2)-V(3)) * 9.041E-003)
RB1 5 0 1MEG
BUPTURN 100 0 V = ABS(I(VC)) < 1000 ? 27 : 27 - ((ABS(I(VC))/1000)-1)^3
RUPTURN 100 0 1MEG
B2 6 0 V = 1.0E-032 * ( V(5) ^ V(100))
RB2 6 0 1MEG
B3 2 3 I = V(2,3) > 0 ? V(6) : -1 * V(6)
ROFF 2 3 1G
C1 2 3 1800P
RON 3 4 0.0500
VC 4 14
LOUT 14 7 5NH
.ENDS
**********
*SRC=V130L20C;V130L20C;Varistors;Harris;
*SYM=MOV
.SUBCKT V130L20C 1 7
*HARRIS V130LA20C
* (I1,V1)=(1.00E-003,2.50E+002)
* (I2,V2)=(1.00E+003,4.25E+002)
* Inom = 3.65E+003
* Upturn exp = 2
* %Bulk voltage drop = 1.00E+000
LIN 1 2 5.00E-009H
B1 5 0 V = (ABS(V(2)-V(3)))*5.27E-002
BUPTURN 100 0 V = ABS(I(VC)) < 3.65E+003 ? 26 : 26 - ((ABS(I(VC))/3.65E+003)-1)^2
B2 6 0 V = 1E-32 * (V(5)^V(100))
B3 2 3 I = V(2,3) > 0 ? V(6) : -1 * V(6)
ROFF 2 3 1G
C1 2 3 1.60E-009
RON 3 4 4.25E-003
VC 4 7
.ENDS
**********
*SRC=V140L20C;V140L20C;Varistors;Harris;
*SYM=MOV
.SUBCKT V140L20C 1 7
*HARRIS V140LA20C
* (I1,V1)=(1.00E-003,2.75E+002)
* (I2,V2)=(1.00E+003,4.55E+002)
* Inom = 3.65E+003
* Upturn exp = 2
* %Bulk voltage drop = 1.00E+000
LIN 1 2 5.00E-009H
B1 5 0 V = (ABS(V(2)-V(3)))*4.39E-002
BUPTURN 100 0 V = ABS(I(VC)) < 3.65E+003 ? 27 : 27 - ((ABS(I(VC))/3.65E+003)-1)^2
B2 6 0 V = 1E-32 * (V(5)^V(100))
B3 2 3 I = V(2,3) > 0 ? V(6) : -1 * V(6)
ROFF 2 3 1G
C1 2 3 1.60E-009
RON 3 4 4.55E-003
VC 4 7
.ENDS
**********
*SRC=V150L20C;V150L20C;Varistors;Harris;
*SYM=MOV
.SUBCKT V150L20C 1 7
*HARRIS V150LA20C
* (I1,V1)=(1.00E-003,3.00E+002)
* (I2,V2)=(1.00E+003,5.00E+002)
* Inom = 3.65E+003
* Upturn exp = 2
* %Bulk voltage drop = 1.00E+000
LIN 1 2 5.00E-009H
B1 5 0 V = (ABS(V(2)-V(3)))*4.00E-002
BUPTURN 100 0 V = ABS(I(VC)) < 3.65E+003 ? 27 : 27 - ((ABS(I(VC))/3.65E+003)-1)^2
B2 6 0 V = 1E-32 * (V(5)^V(100))
B3 2 3 I = V(2,3) > 0 ? V(6) : -1 * V(6)
ROFF 2 3 1G
C1 2 3 1.60E-009
RON 3 4 5.00E-003
VC 4 7
.ENDS
**********
*SRC=V175L20C;V175L20C;Varistors;Harris;
*SYM=MOV
.SUBCKT V175L20C 1 7
*HARRIS V175LA20C
* (I1,V1)=(1.00E-003,3.45E+002)
* (I2,V2)=(1.00E+003,5.75E+002)
* Inom = 3.65E+003
* Upturn exp = 2
* %Bulk voltage drop = 1.00E+000
LIN 1 2 5.00E-009H
B1 5 0 V = (ABS(V(2)-V(3)))*3.48E-002
BUPTURN 100 0 V = ABS(I(VC)) < 3.65E+003 ? 27 : 27 - ((ABS(I(VC))/3.65E+003)-1)^2
B2 6 0 V = 1E-32 * (V(5)^V(100))
B3 2 3 I = V(2,3) > 0 ? V(6) : -1 * V(6)
ROFF 2 3 1G
C1 2 3 1.60E-009
RON 3 4 5.75E-003
VC 4 7
.ENDS
**********
*SRC=V230L40C;V230L40C;Varistors;Harris;
*SYM=MOV
.SUBCKT V230L40C 1 7
*HARRIS V230LA40C
* (I1,V1)=(1.00E-003,4.40E+002)
* (I2,V2)=(1.00E+003,7.50E+002)
* Inom = 3.65E+003
* Upturn exp = 2
* %Bulk voltage drop = 1.00E+000
LIN 1 2 5.00E-009H
B1 5 0 V = (ABS(V(2)-V(3)))*2.99E-002
BUPTURN 100 0 V = ABS(I(VC)) < 3.65E+003 ? 26 : 26 - ((ABS(I(VC))/3.65E+003)-1)^2
B2 6 0 V = 1E-32 * (V(5)^V(100))
B3 2 3 I = V(2,3) > 0 ? V(6) : -1 * V(6)
ROFF 2 3 1G
C1 2 3 1.60E-009
RON 3 4 7.50E-003
VC 4 7
.ENDS
**********
*SRC=V250L40C;V250L40C;Varistors;Harris;
*SYM=MOV
.SUBCKT V250L40C 1 7
*HARRIS V250LA40C
* (I1,V1)=(1.00E-003,4.75E+002)
* (I2,V2)=(1.00E+003,8.20E+002)
* Inom = 3.65E+003
* Upturn exp = 2
* %Bulk voltage drop = 1.00E+000
LIN 1 2 5.00E-009H
B1 5 0 V = (ABS(V(2)-V(3)))*3.09E-002
BUPTURN 100 0 V = ABS(I(VC)) < 3.65E+003 ? 25 : 25 - ((ABS(I(VC))/3.65E+003)-1)^2
B2 6 0 V = 1E-32 * (V(5)^V(100))
B3 2 3 I = V(2,3) > 0 ? V(6) : -1 * V(6)
ROFF 2 3 1G
C1 2 3 1.60E-009
RON 3 4 8.20E-003
VC 4 7
.ENDS
**********
*SRC=V275L40C;V275L40C;Varistors;Harris;
*SYM=MOV
.SUBCKT V275L40C 1 7
*HARRIS V275LA40C
* (I1,V1)=(1.00E-003,5.25E+002)
* (I2,V2)=(1.00E+003,9.20E+002)
* Inom = 3.65E+003
* Upturn exp = 2
* %Bulk voltage drop = 1.00E+000
LIN 1 2 5.00E-009H
B1 5 0 V = (ABS(V(2)-V(3)))*2.76E-002
BUPTURN 100 0 V = ABS(I(VC)) < 3.65E+003 ? 25 : 25 - ((ABS(I(VC))/3.65E+003)-1)^2
B2 6 0 V = 1E-32 * (V(5)^V(100))
B3 2 3 I = V(2,3) > 0 ? V(6) : -1 * V(6)
ROFF 2 3 1G
C1 2 3 1.60E-009
RON 3 4 9.20E-003
VC 4 7
.ENDS
**********
*SRC=V300L40C;V300L40C;Varistors;Harris;
*SYM=MOV
.SUBCKT V300L40C 1 7
*HARRIS V300LA40C
* (I1,V1)=(1.00E-003,5.70E+002)
* (I2,V2)=(1.00E+003,1.00E+003)
* Inom = 3.65E+003
* Upturn exp = 2
* %Bulk voltage drop = 1.00E+000
LIN 1 2 5.00E-009H
B1 5 0 V = (ABS(V(2)-V(3)))*2.54E-002
BUPTURN 100 0 V = ABS(I(VC)) < 3.65E+003 ? 25 : 25 - ((ABS(I(VC))/3.65E+003)-1)^2
B2 6 0 V = 1E-32 * (V(5)^V(100))
B3 2 3 I = V(2,3) > 0 ? V(6) : -1 * V(6)
ROFF 2 3 1G
C1 2 3 1.60E-009
RON 3 4 1.00E-002
VC 4 7
.ENDS
**********
*SRC=V130L10C;V130L10C;Varistors;Harris;
*SYM=MOV
.SUBCKT V130L10C 1 7
*HARRIS V130LA10C
* (I1,V1)=(1.00E-003,2.70E+002)
* (I2,V2)=(5.25E+002,4.90E+002)
* Inom = 3.85E+003
* Upturn exp = 2
* %Bulk voltage drop = 1.00E+000
LIN 1 2 5.00E-009H
B1 5 0 V = (ABS(V(2)-V(3)))*7.80E-002
BUPTURN 100 0 V = ABS(I(VC)) < 3.85E+003 ? 22 : 22 - ((ABS(I(VC))/3.85E+003)-1)^2
B2 6 0 V = 1E-32 * (V(5)^V(100))
B3 2 3 I = V(2,3) > 0 ? V(6) : -1 * V(6)
ROFF 2 3 1G
C1 2 3 1.60E-009
RON 3 4 9.33E-003
VC 4 7
.ENDS
**********
*SRC=V140L10C;V140L10C;Varistors;Harris;
*SYM=MOV
.SUBCKT V140L10C 1 7
*HARRIS V140LA10C
* (I1,V1)=(1.00E-003,2.90E+002)
* (I2,V2)=(5.25E+002,5.05E+002)
* Inom = 3.60E+003
* Upturn exp = 2
* %Bulk voltage drop = 1.00E+000
LIN 1 2 5.00E-009H
B1 5 0 V = (ABS(V(2)-V(3)))*5.59E-002
BUPTURN 100 0 V = ABS(I(VC)) < 3.60E+003 ? 24 : 24 - ((ABS(I(VC))/3.60E+003)-1)^2
B2 6 0 V = 1E-32 * (V(5)^V(100))
B3 2 3 I = V(2,3) > 0 ? V(6) : -1 * V(6)
ROFF 2 3 1G
C1 2 3 1.60E-009
RON 3 4 9.62E-003
VC 4 7
.ENDS
**********
*SRC=V150L10C;V150L10C;Varistors;Harris;
*SYM=MOV
.SUBCKT V150L10C 1 7
*HARRIS V150LA10C
* (I1,V1)=(1.00E-003,3.00E+002)
* (I2,V2)=(5.25E+002,5.23E+002)
* Inom = 3.60E+003
* Upturn exp = 2
* %Bulk voltage drop = 1.00E+000
LIN 1 2 5.00E-009H
B1 5 0 V = (ABS(V(2)-V(3)))*5.40E-002
BUPTURN 100 0 V = ABS(I(VC)) < 3.60E+003 ? 24 : 24 - ((ABS(I(VC))/3.60E+003)-1)^2
B2 6 0 V = 1E-32 * (V(5)^V(100))
B3 2 3 I = V(2,3) > 0 ? V(6) : -1 * V(6)
ROFF 2 3 1G
C1 2 3 1.60E-009
RON 3 4 9.96E-003
VC 4 7
.ENDS
**********
*SRC=V175L10C;V175L10C;Varistors;Harris;
*SYM=MOV
.SUBCKT V175L10C 1 7
*HARRIS V175LA10C
* (I1,V1)=(1.00E-003,3.35E+002)
* (I2,V2)=(5.25E+002,6.10E+002)
* Inom = 3.85E+003
* Upturn exp = 2
* %Bulk voltage drop = 1.00E+000
LIN 1 2 5.00E-009H
B1 5 0 V = (ABS(V(2)-V(3)))*6.27E-002
BUPTURN 100 0 V = ABS(I(VC)) < 3.85E+003 ? 22 : 22 - ((ABS(I(VC))/3.85E+003)-1)^2
B2 6 0 V = 1E-32 * (V(5)^V(100))
B3 2 3 I = V(2,3) > 0 ? V(6) : -1 * V(6)
ROFF 2 3 1G
C1 2 3 1.60E-009
RON 3 4 1.16E-002
VC 4 7
.ENDS
**********
*SRC=V230L20C;V230L20C;Varistors;Harris;
*SYM=MOV
.SUBCKT V230L20C 1 7
*HARRIS V230LA20C
* (I1,V1)=(1.00E-003,4.50E+002)
* (I2,V2)=(5.25E+002,7.90E+002)
* Inom = 3.85E+003
* Upturn exp = 2
* %Bulk voltage drop = 1.00E+000
LIN 1 2 5.00E-009H
B1 5 0 V = (ABS(V(2)-V(3)))*4.13E-002
BUPTURN 100 0 V = ABS(I(VC)) < 3.85E+003 ? 23 : 23 - ((ABS(I(VC))/3.85E+003)-1)^2
B2 6 0 V = 1E-32 * (V(5)^V(100))
B3 2 3 I = V(2,3) > 0 ? V(6) : -1 * V(6)
ROFF 2 3 1G
C1 2 3 1.60E-009
RON 3 4 1.50E-002
VC 4 7
.ENDS
**********
*SRC=V250L20C;V250L20C;Varistors;Harris;
*SYM=MOV
.SUBCKT V250L20C 1 7
*HARRIS V250LA20C
* (I1,V1)=(1.00E-003,4.80E+002)
* (I2,V2)=(5.25E+002,8.70E+002)
* Inom = 3.85E+003
* Upturn exp = 2
* %Bulk voltage drop = 1.00E+000
LIN 1 2 5.00E-009H
B1 5 0 V = (ABS(V(2)-V(3)))*4.40E-002
BUPTURN 100 0 V = ABS(I(VC)) < 3.85E+003 ? 22 : 22 - ((ABS(I(VC))/3.85E+003)-1)^2
B2 6 0 V = 1E-32 * (V(5)^V(100))
B3 2 3 I = V(2,3) > 0 ? V(6) : -1 * V(6)
ROFF 2 3 1G
C1 2 3 1.60E-009
RON 3 4 1.66E-002
VC 4 7
.ENDS
**********
*SRC=V275L20C;V275L20C;Varistors;Harris;
*SYM=MOV
.SUBCKT V275L20C 1 7
*HARRIS V275LA20C
* (I1,V1)=(1.00E-003,5.25E+002)
* (I2,V2)=(5.25E+002,9.55E+002)
* Inom = 3.85E+003
* Upturn exp = 2
* %Bulk voltage drop = 1.00E+000
LIN 1 2 5.00E-009H
B1 5 0 V = (ABS(V(2)-V(3)))*4.00E-002
BUPTURN 100 0 V = ABS(I(VC)) < 3.85E+003 ? 22 : 22 - ((ABS(I(VC))/3.85E+003)-1)^2
B2 6 0 V = 1E-32 * (V(5)^V(100))
B3 2 3 I = V(2,3) > 0 ? V(6) : -1 * V(6)
ROFF 2 3 1G
C1 2 3 1.60E-009
RON 3 4 1.82E-002
VC 4 7
.ENDS
**********
*SRC=V300L20C;V300L20C;Varistors;Harris;
*SYM=MOV
.SUBCKT V300L20C 1 7
*HARRIS V300LA20C
* (I1,V1)=(1.00E-003,6.00E+002)
* (I2,V2)=(5.25E+002,1.01E+003)
* Inom = 3.60E+003
* Upturn exp = 2
* %Bulk voltage drop = 1.00E+000
LIN 1 2 5.00E-009H
B1 5 0 V = (ABS(V(2)-V(3)))*2.45E-002
BUPTURN 100 0 V = ABS(I(VC)) < 3.60E+003 ? 25 : 25 - ((ABS(I(VC))/3.60E+003)-1)^2
B2 6 0 V = 1E-32 * (V(5)^V(100))
B3 2 3 I = V(2,3) > 0 ? V(6) : -1 * V(6)
ROFF 2 3 1G
C1 2 3 1.60E-009
RON 3 4 1.92E-002
VC 4 7
.ENDS
**********
*SRC=V251BA60;V251BA60;Varistors;Harris;
*SYM=MOV
.SUBCKT V251BA60 1 7
*HARRIS V251BA60
* (I1,V1)=(1.00E-001,5.50E+002)
* (I2,V2)=(3.00E+003,7.20E+002)
* Inom = 4.25E+003
* Upturn exp = 2
* %Bulk voltage drop = 1.00E+000
LIN 1 2 5.00E-009H
B1 5 0 V = (ABS(V(2)-V(3)))*1.14E-002
BUPTURN 100 0 V = ABS(I(VC)) < 4.25E+003 ? 39 : 39 - ((ABS(I(VC))/4.25E+003)-1)^2
B2 6 0 V = 1E-32 * (V(5)^V(100))
B3 2 3 I = V(2,3) > 0 ? V(6) : -1 * V(6)
ROFF 2 3 1G
C1 2 3 1.00E-008
RON 3 4 2.40E-003
VC 4 7
.ENDS
**********
*SRC=V271BA60;V271BA60;Varistors;Harris;
*SYM=MOV
.SUBCKT V271BA60 1 7
*HARRIS V271BA60
* (I1,V1)=(1.00E-001,6.00E+002)
* (I2,V2)=(3.00E+003,8.00E+002)
* Inom = 4.25E+003
* Upturn exp = 2
* %Bulk voltage drop = 1.00E+000
LIN 1 2 5.00E-009H
B1 5 0 V = (ABS(V(2)-V(3)))*1.15E-002
BUPTURN 100 0 V = ABS(I(VC)) < 4.25E+003 ? 37 : 37 - ((ABS(I(VC))/4.25E+003)-1)^2
B2 6 0 V = 1E-32 * (V(5)^V(100))
B3 2 3 I = V(2,3) > 0 ? V(6) : -1 * V(6)
ROFF 2 3 1G
C1 2 3 9.00E-009
RON 3 4 2.67E-003
VC 4 7
.ENDS
**********
*SRC=V321BA60;V321BA60;Varistors;Harris;
*SYM=MOV
.SUBCKT V321BA60 1 7
*HARRIS V321BA60
* (I1,V1)=(1.00E-001,6.52E+002)
* (I2,V2)=(3.00E+003,8.83E+002)
* Inom = 4.25E+003
* Upturn exp = 2
* %Bulk voltage drop = 1.00E+000
LIN 1 2 5.00E-009H
B1 5 0 V = (ABS(V(2)-V(3)))*1.18E-002
BUPTURN 100 0 V = ABS(I(VC)) < 4.25E+003 ? 35 : 35 - ((ABS(I(VC))/4.25E+003)-1)^2
B2 6 0 V = 1E-32 * (V(5)^V(100))
B3 2 3 I = V(2,3) > 0 ? V(6) : -1 * V(6)
ROFF 2 3 1G
C1 2 3 7.50E-009
RON 3 4 2.94E-003
VC 4 7
.ENDS
**********
*SRC=V421BA60;V421BA60;Varistors;Harris;
*SYM=MOV
.SUBCKT V421BA60 1 7
*HARRIS V421BA60
* (I1,V1)=(1.00E-001,8.98E+002)
* (I2,V2)=(3.00E+003,1.23E+003)
* Inom = 4.25E+003
* Upturn exp = 2
* %Bulk voltage drop = 1.00E+000
LIN 1 2 5.00E-009H
B1 5 0 V = (ABS(V(2)-V(3)))*9.76E-003
BUPTURN 100 0 V = ABS(I(VC)) < 4.25E+003 ? 33 : 33 - ((ABS(I(VC))/4.25E+003)-1)^2
B2 6 0 V = 1E-32 * (V(5)^V(100))
B3 2 3 I = V(2,3) > 0 ? V(6) : -1 * V(6)
ROFF 2 3 1G
C1 2 3 6.00E-009
RON 3 4 4.10E-003
VC 4 7
.ENDS
**********
*SRC=V481BA60;V481BA60;Varistors;Harris;
*SYM=MOV
.SUBCKT V481BA60 1 7
*HARRIS V481BA60
* (I1,V1)=(1.00E-001,9.80E+002)
* (I2,V2)=(3.00E+003,1.35E+003)
* Inom = 4.25E+003
* Upturn exp = 2
* %Bulk voltage drop = 1.00E+000
LIN 1 2 5.00E-009H
B1 5 0 V = (ABS(V(2)-V(3)))*8.89E-003
BUPTURN 100 0 V = ABS(I(VC)) < 4.25E+003 ? 33 : 33 - ((ABS(I(VC))/4.25E+003)-1)^2
B2 6 0 V = 1E-32 * (V(5)^V(100))
B3 2 3 I = V(2,3) > 0 ? V(6) : -1 * V(6)
ROFF 2 3 1G
C1 2 3 5.50E-009
RON 3 4 4.50E-003
VC 4 7
.ENDS
**********
*SRC=V511BA60;V511BA60;Varistors;Harris;
*SYM=MOV
.SUBCKT V511BA60 1 7
*HARRIS V511BA60
* (I1,V1)=(1.00E-001,1.11E+003)
* (I2,V2)=(3.00E+003,1.53E+003)
* Inom = 4.25E+003
* Upturn exp = 2
* %Bulk voltage drop = 1.00E+000
LIN 1 2 5.00E-009H
B1 5 0 V = (ABS(V(2)-V(3)))*7.85E-003
BUPTURN 100 0 V = ABS(I(VC)) < 4.25E+003 ? 33 : 33 - ((ABS(I(VC))/4.25E+003)-1)^2
B2 6 0 V = 1E-32 * (V(5)^V(100))
B3 2 3 I = V(2,3) > 0 ? V(6) : -1 * V(6)
ROFF 2 3 1G
C1 2 3 5.00E-009
RON 3 4 5.10E-003
VC 4 7
.ENDS
**********
*SRC=V571BA60;V571BA60;Varistors;Harris;
*SYM=MOV
.SUBCKT V571BA60 1 7
*HARRIS V571BA60
* (I1,V1)=(1.00E-001,1.22E+003)
* (I2,V2)=(3.00E+003,1.67E+003)
* Inom = 4.25E+003
* Upturn exp = 2
* %Bulk voltage drop = 1.00E+000
LIN 1 2 5.00E-009H