**********
*SRC=LM6142A;LM6142A;Opamps;NAT-"LMxxx";CMOS Input
*SYM=NATOPAMP
*LM6142A OP-AMP MACRO-MODEL
*
* Connections:      Non-inverting input
*                   |   Inverting input
*                   |   |   Positive power supply
*                   |   |   |   Negative power supply
*                   |   |   |   |   Output
*                   |   |   |   |   |
*                   |   |   |   |   |
.SUBCKT LM6142A     1   2  99  50  28
* CAUTION:  SET .OPTIONS GMIN=1E-16 TO CORRECTLY MODEL INPUT BIAS CURRENT.
* Features:
* Operates from single supply
* Rail-to-rail output swing
* Low offset voltage (max) = 1mV
* Input current = 170nA
* Slew rate = 27V/uS
* Gain-bandwidth product = 17MHZ
* Low supply current = 600uA
*
* NOTE: - This model is for a single device only and the simulated
*         supply current is for one op amp only.
*       - Noise is not modeled.
*       - Asymmetrical gain is not modeled.
*       - In the next revision, the following will be modelled
*       - Voltage dependent (Vin or Vcc) slew rate
*       - Gain/phase variation vs output Z
*
CI1 1  50 2P
CI2 2  50 2P
*
* 53Hz pole capacitor
C3  98 9  0.30N
*
C4  6  5  .493P
C7  98 11 3.54F
*
DP1 1  99 DA
DP2 50 1  DX
DP3 2  99 DB
DP4 50 2  DX
D1  9  8  DX
D2  10 9  DX
D3  15 20 DX
D4  21 15 DX
D5  26 24 DX
D6  25 27 DX
D7  22 99 DX
D8  50 22 DX
D9  0  14 DX
D10 12 0  DX
D11 11 33 DX
D12 34 11 DX
D14 31 32 DX
EH  97 98 99    49 1.0
EN  0  96 0     50 1.0
* Input offset voltage -|
EOS 7  1  POLY(1) 16 49 1M 1
EP  97 0  99    0  1.0
E1  97 19 99    15 1.0
E2  18 7  32    99 1E-3
* Sourcing load +Vs current
F1  99 0  VA2   1
* Sinking load -Vs current
F2  0  50 VA3   1
F3  13 0  VA1   1
G1  98 9  5     6  0.1
G2  98 11 9     49 1U
G3  98 15 11    49 1U
* DC CMRR
G4  98 16 POLY(2) 1 49 2 49 0 3.54E-8 3.54E-8
I1  99 4  23U
I2  99 50 627U
* Load dependent pole
L1 22 28 300N
*
* CMR lead
L2  16 17 7.95M
M1  5  2  4     99 MX
M2  6  18 4     99 MX
R3  5  50 3.60K
R4  6  50 3.60K
R5  98 9  1E7
R8  99 49 133.3K
R9  49 50 133.3K
R12 98 11 1E6
R13 98 17 1K
* -Rout
R16 23 24 10
* +Rout
R17 23 25 18
* +Isc slope control
R18 20 29 12K
* -Isc slope control
R19 21 30 12K
R21 98 15 1E6
R22 22 28 900
R23 32 97 100K
VA1 19 23 0V
VA2 14 13 0V
VA3 13 12 0V
V2  97 8  0.625V
V3  10 96 0.625V
V4  29 22 -.186V
V5  22 30 -.186V
V6  26 22 0.63V
V7  22 27 0.63V
V8 31 50 4V
V9 34 96 .346
V10 97 33 .346
*
.MODEL  DA D    (IS=170E-9)
.MODEL  DB D    (IS=173E-9)
.MODEL  DX D    (IS=1.0E-14)
.MODEL  MX PMOS (VTO=-.6 KP=4.2E-4 GAMMA=1.1)
*
.ENDS
**************
*SRC=LM6142B;LM6142B;Opamps;NAT-"LMxxx";CMOS Input
*SYM=NATOPAMP
*LM6142B OP-AMP MACRO-MODEL
*
* Connections:      Non-inverting input
*                   |   Inverting input
*                   |   |   Positive power supply
*                   |   |   |   Negative power supply
*                   |   |   |   |   Output
*                   |   |   |   |   |
*                   |   |   |   |   |
.SUBCKT LM6142B     1   2  99  50  28
* CAUTION:  SET .OPTIONS GMIN=1E-16 TO CORRECTLY MODEL INPUT BIAS CURRENT.
* Features:
* Operates from single supply
* Rail-to-rail output swing
* Low offset voltage (max) = 1mV
* Input current = 170nA
* Slew rate = 27V/uS
* Gain-bandwidth product = 17MHZ
* Low supply current = 600uA
*
* NOTE: - This model is for a single device only and the simulated
*         supply current is for one op amp only.
*       - Noise is not modeled.
*       - Asymmetrical gain is not modeled.
*       - In the next revision, the following will be modelled
*       - Voltage dependent (Vin or Vcc) slew rate
*       - Gain/phase variation vs output Z
*
CI1 1  50 2P
CI2 2  50 2P
*
* 53Hz pole capacitor
C3  98 9  0.30N
*
C4  6  5  .493P
C7  98 11 3.54F
*
DP1 1  99 DA
DP2 50 1  DX
DP3 2  99 DB
DP4 50 2  DX
D1  9  8  DX
D2  10 9  DX
D3  15 20 DX
D4  21 15 DX
D5  26 24 DX
D6  25 27 DX
D7  22 99 DX
D8  50 22 DX
D9  0  14 DX
D10 12 0  DX
D11 11 33 DX
D12 34 11 DX
D14 31 32 DX
EH  97 98 99    49 1.0
EN  0  96 0     50 1.0
* Input offset voltage -|
EOS 7  1  POLY(1) 16 49 2.5M 1
EP  97 0  99    0  1.0
E1  97 19 99    15 1.0
E2  18 7  32    99 1E-3
* Sourcing load +Vs current
F1  99 0  VA2   1
* Sinking load -Vs current
F2  0  50 VA3   1
F3  13 0  VA1   1
G1  98 9  5     6  0.1
G2  98 11 9     49 1U
G3  98 15 11    49 1U
* DC CMRR
G4  98 16 POLY(2) 1 49 2 49 0 3.54E-8 3.54E-8
I1  99 4  23U
I2  99 50 627U
* Load dependent pole
L1 22 28 300N
*
* CMR lead
L2  16 17 7.95M
M1  5  2  4     99 MX
M2  6  18 4     99 MX
R3  5  50 3.60K
R4  6  50 3.60K
R5  98 9  1E7
R8  99 49 133.3K
R9  49 50 133.3K
R12 98 11 1E6
R13 98 17 1K
* -Rout
R16 23 24 10
* +Rout
R17 23 25 18
* +Isc slope control
R18 20 29 12K
* -Isc slope control
R19 21 30 12K
R21 98 15 1E6
R22 22 28 900
R23 32 97 100K
VA1 19 23 0V
VA2 14 13 0V
VA3 13 12 0V
V2  97 8  0.625V
V3  10 96 0.625V
V4  29 22 -.186V
V5  22 30 -.186V
V6  26 22 0.63V
V7  22 27 0.63V
V8 31 50 4V
V9 34 96 .346
V10 97 33 .346
*
.MODEL  DA D    (IS=170E-9)
.MODEL  DB D    (IS=173E-9)
.MODEL  DX D    (IS=1.0E-14)
.MODEL  MX PMOS (VTO=-.6 KP=4.2E-4 GAMMA=1.1)
.ENDS
******************
*SRC=LM111N;LM111N;Comparators;National;Common Emitter
*SYM=NATCOMP
* LM111 VOLTAGE COMPARATOR
* CONNECTIONS: 
*                POSITIVE INPUT
*                | NEGATIVE INPUT
*                | | OUTPUT
*                | | | POSITIVE POWER SUPPLY
*                | | | | NEGATIVE POWER SUPPLY
*                | | | | | GROUND OR EMITTER OUTPUT
*                | | | | | |
.SUBCKT LM111N   3 2 1 8 4 104
* CAUTION:  SET .OPTIONS GMIN=1E-16 TO CORRECTLY MODEL 
* INPUT BIAS CURRENT.
* FEATURES:
* OPERATES FROM A SINGLE 5V SUPPLY
* VERY LOW INPUT CURRENT
* VERY LOW POWER CONSUMPTION
*
* NOTE: - NOISE IS NOT MODELED.
*       - ASYMMETRICAL GAIN IS NOT MODELED.
*
*----- INPUT STAGE -----
VOS  2 13 DC 0.0007
IEE  8 10 DC 1E-4
RC_Q1  11 4 1517.2
RC_Q2  12 4 1517.2
RE_Q1  10 6 1000
RE_Q2  10 7 1000
Q1  11 3 6 MQ1
Q2  12 13 7 MQ2
*----- SUPPLY CURRENT -----
GSUP  8 4 33 4 1
RSUP  8 45 33333.3
DSUP  45 4 MDS
IIS  4 33 DC 0.00395
RIS  33 4 1 RISMOD
.MODEL RISMOD R (TC1=-0.00379747 TC2=-3.55271E-20)
*----- DELAY VS. OVERDRIVE -----
G1  4 25 12 11 10
RCL  25 4 10
DCL1  25 26 MD0
DCL2  27 25 MD0
VCL1  26 4 DC 9.4
VCL2  4 27 DC 9.4
G2  4 16 25 4 0.01
D3  16 18 MD1
D4  17 16 MD1
V1  18 4 DC 0
V2  4 17 DC 0
*----- INTER STAGE -----
GB  4 20 12 11 100
RB  20 4 10
H1  22 4 POLY(1) V1 0 1089.83 -4491.35
H2  4 21 POLY(1) V2 0 1089.83 -4491.35  
DB1  20 22 MDB1
DB2  21 20 MDB1
GT  4 30 20 4 1E-5
RT  30 4 100K
CT  30 4 0.8116E-12
GC  4 35 30 4 0.003448
RC  35 4 1K
*----- OUTPUT STAGE -----
GO  104 40 35 4 -0.01
RO  104 40 10
EOB  41 40 45 4 1
RR  1 104 1MEG
CO  40 104 10P
VOE  42 104 DC -0.0477
QO  1 41 42 MQO
.MODEL MQ1 PNP BF=805.452 XTB=1.1526
.MODEL MQ2 PNP BF=861.069 XTB=1.1526
.MODEL MD0 D IS=1E-10 RS=0.01
.MODEL MD1 D IS=1E-12
.MODEL MDB1 D
.MODEL MDS D IS=1E-16
.MODEL MQO NPN BF=100 RC=13.4286 ISC=1.8E-10
+ BR=10 NR=0.95 CJS=5P CJC=1P TF=2N
.ENDS
*****
*SRC=LM6132A;LM6132A;Opamps;NAT-"LMxxx";Low Power 100MHz
*SYM=NATOPAMP 
*
* CONNECTIONS:      NON-INVERTING INPUT
*                   |   INVERTING INPUT
*                   |   |   POSITIVE POWER SUPPLY
*                   |   |   |   NEGATIVE POWER SUPPLY
*                   |   |   |   |   OUTPUT
*                   |   |   |   |   |
*                   |   |   |   |   |
.SUBCKT LM6132A     1   2  99  50  28
* CAUTION:  SET .OPTIONS GMIN=1E-16 TO CORRECTLY MODEL 
* INPUT BIAS CURRENT.
* FEATURES:
* OPERATES FROM SINGLE SUPPLY
* RAIL-TO-RAIL OUTPUT SWING
* OFFSET VOLTAGE (MAX) = 6MV           
* INPUT CURRENT = 170NA            
* SLEW RATE = 27V/US                       
* GAIN-BANDWIDTH PRODUCT = 17MHZ          
* LOW SUPPLY CURRENT = 600UA               
*
* NOTE: - THIS MODEL IS FOR A SINGLE DEVICE ONLY AND THE SIMULATED
*         SUPPLY CURRENT IS FOR ONE OP AMP ONLY.
*       - NOISE IS NOT MODELED.
*       - ASYMMETRICAL GAIN IS NOT MODELED.
*       - IN THE NEXT REVISION, THE FOLLOWING WILL BE MODELLED
*       - VOLTAGE DEPENDENT (VIN OR VCC) SLEW RATE
*       - GAIN/PHASE VARIATION VS OUTPUT Z
*
CI1 1  50 2P
CI2 2  50 2P
*
* 53HZ POLE CAPACITOR
C3 98 9 0.15N
*
C4  6  5  .493P
C5  98 15 2F
C7 98 11 20F
*
DP1 1  99 DA
DP2 50 1  DX
DP3 2  99 DB
DP4 50 2  DX
D1  9  8  DX
D2  10 9  DX
D3  15 20 DX
D4  21 15 DX
D5  26 24 DX
D6  25 27 DX
D7  22 99 DX
D8  50 22 DX
D9  0  14 DX
D10 12 0  DX
D11 11 33 DX
D12 34 11 DX
D14 31 32 DX 
EH  97 98 99    49 1.0
EN  0  96 0     50 1.0
* INPUT OFFSET VOLTAGE 
EOS 7  1  POLY(1) 16 49 2M 1
EP  97 0  99    0  1.0
E1  97 19 99    15 1.0
E2  18 7  32    99 1E-3 
* SOURCING LOAD +VS CURRENT
F1  99 0  VA2   1
* SINKING LOAD -VS CURRENT
F2  0  50 VA3   1
F3  13 0  VA1   1
G1  98 9  5     6  0.1
G2  98 11 9     49 1U
G3  98 15 11    49 1U
* DC CMRR
G4  98 16 POLY(2) 1 49 2 49 0 3.5E-9 3.5E-9
I1 99 4 18U
I2 99 50 319U
* LOAD DEPENDENT POLE
L1 22 28 300N
*
* CMR LEAD
L2  16 17 7.95M
M1  5  2  4  99 MX
M2  6  18 4  99 MX
R3  5  50 1.20K
R4  6  50 1.20K
R5  98 9  1E7
R8  99 49 133.3K
R9  49 50 133.3K
R12 98 11 1E6
R13 98 17 1K
*
* -ROUT
R16 23 24 62
* +ROUT
R17 23 25 138
*
* +ISC SLOPE CONTROL
R18 20 29 12K
* -ISC SLOPE CONTROL
R19 21 30 12K
*
R21 98 15 1E6
R22 22 28 900
R23 32 97 100K    
VA1 19 23 0V
VA2 14 13 0V
VA3 13 12 0V
V2  97 8  0.61V
V3  10 96 0.61V
V4  29 22 .21V
V5  22 30 .21V
V6  26 22 0.61V
V7  22 27 0.61V
V8 31 50 4V
V9 34 96 .34
V10 97 33 .34
*
.MODEL  DA D    (IS=110E-9)
.MODEL  DB D    (IS=113.4E-9)
.MODEL  DX D    (IS=1.0E-14)
.MODEL  MX PMOS (VTO=-.6 KP=4.2E-4 GAMMA=1.1)
.ENDS
*****
*SRC=LM6132B;LM6132B;Opamps;NAT-"LMxxx";Low Power 100MHz
*SYM=NATOPAMP 
*
* CONNECTIONS:      NON-INVERTING INPUT
*                   |   INVERTING INPUT
*                   |   |   POSITIVE POWER SUPPLY
*                   |   |   |   NEGATIVE POWER SUPPLY
*                   |   |   |   |   OUTPUT
*                   |   |   |   |   |
*                   |   |   |   |   |
.SUBCKT LM6132B     1   2  99  50  28
* CAUTION:  SET .OPTIONS GMIN=1E-16 TO CORRECTLY MODEL 
* INPUT BIAS CURRENT.
* FEATURES:
* OPERATES FROM SINGLE SUPPLY
* RAIL-TO-RAIL OUTPUT SWING
* OFFSET VOLTAGE (MAX) = 6MV           
* INPUT CURRENT = 170NA            
* SLEW RATE = 27V/US                       
* GAIN-BANDWIDTH PRODUCT = 10MHZ          
* LOW SUPPLY CURRENT = 360UA               
*
* NOTE: - THIS MODEL IS FOR A SINGLE DEVICE ONLY AND THE SIMULATED
*         SUPPLY CURRENT IS FOR ONE OP AMP ONLY.
*       - NOISE IS NOT MODELED.
*       - ASYMMETRICAL GAIN IS NOT MODELED.
*       - IN THE NEXT REVISION, THE FOLLOWING WILL BE MODELLED
*       - VOLTAGE DEPENDENT (VIN OR VCC) SLEW RATE
*       - GAIN/PHASE VARIATION VS OUTPUT Z
*
CI1 1  50 2P
CI2 2  50 2P
*
* 53HZ POLE CAPACITOR
C3 98 9 0.15N
*
C4  6  5  .493P
C5  98 15 2F
C7 98 11 20F
*
DP1 1  99 DA
DP2 50 1  DX
DP3 2  99 DB
DP4 50 2  DX
D1  9  8  DX
D2  10 9  DX
D3  15 20 DX
D4  21 15 DX
D5  26 24 DX
D6  25 27 DX
D7  22 99 DX
D8  50 22 DX
D9  0  14 DX
D10 12 0  DX
D11 11 33 DX
D12 34 11 DX
D14 31 32 DX 
EH  97 98 99    49 1.0
EN  0  96 0     50 1.0
* INPUT OFFSET VOLTAGE
EOS 7  1  POLY(1) 16 49 6M 1
EP  97 0  99    0  1.0
E1  97 19 99    15 1.0
E2  18 7  32    99 1E-3 
* SOURCING LOAD +VS CURRENT
F1  99 0  VA2   1
* SINKING LOAD -VS CURRENT
F2  0  50 VA3   1
F3  13 0  VA1   1
G1  98 9  5     6  0.1
G2  98 11 9     49 1U
G3  98 15 11    49 1U
* DC CMRR
G4  98 16 POLY(2) 1 49 2 49 0 3.5E-9 3.5E-9
I1 99 4 18U
I2 99 50 319U
* LOAD DEPENDENT POLE
L1 22 28 300N
*
* CMR LEAD
L2  16 17 7.95M
M1  5  2  4  99 MX
M2  6  18 4  99 MX
R3  5  50 1.20K
R4  6  50 1.20K
R5  98 9  1E7
R8  99 49 133.3K
R9  49 50 133.3K
R12 98 11 1E6
R13 98 17 1K
*
* -ROUT
R16 23 24 62
* +ROUT
R17 23 25 138
*
* +ISC SLOPE CONTROL
R18 20 29 12K
* -ISC SLOPE CONTROL
R19 21 30 12K
*
R21 98 15 1E6
R22 22 28 900
R23 32 97 100K    
VA1 19 23 0V
VA2 14 13 0V
VA3 13 12 0V
V2  97 8  0.61V
V3  10 96 0.61V
V4  29 22 .21V
V5  22 30 .21V
V6  26 22 0.61V
V7  22 27 0.61V
V8 31 50 4V
V9 34 96 .34
V10 97 33 .34
*
.MODEL  DA D    (IS=110E-9)
.MODEL  DB D    (IS=113.4E-9)
.MODEL  DX D    (IS=1.0E-14)
.MODEL  MX PMOS (VTO=-.6 KP=4.2E-4 GAMMA=1.1)
.ENDS
*****
*SRC=LM6152A;LM6152A;Opamps;NAT-"LMxxx";Low Power 75MHz
*SYM=NATOPAMP 
*
* CONNECTIONS:      NON-INVERTING INPUT
*                   |      INVERTING INPUT
*                   |      |      POSITIVE POWER SUPPLY
*                   |      |      |       NEGATIVE POWER SUPPLY
*                   |      |      |       |      OUTPUT
*                   |      |      |       |      |
*                   |      |      |       |      |
.SUBCKT LM6152A     3      2      4       5      6
*
*FEATURES
*RAIL TO RAIL OUTPUT SWING  
*GREATER THAN RAIL TO RAIL INPUT CMVR
*LOW SUPPLY CURRENT
* 
EOX 120 10 31 32 2.0
RCX 120 121 1K
RDX 121 10 1K
RBX 120 122 1K
GOS 10 57 122 121 1.0
RVOS 31 32 1K
RINB 2 18 1000
RINA 3 19 1000
DIN1 5 18 DMOD2
DIN2 18 4 DMOD2
DIN3 5 19 DMOD2
DIN4 19 4 DMOD2
EXX 10 5 17 5 1.0
EEE 10 50 17 5 1.0
ECC 40 10 4 17 1.0
RAA 4 17 100MEG
RBB 17 5 100MEG
ISET 10 24 1E-3
DA1 24 23 DMOD1
RBAL 23 22 1000
ESUPP 22 21 4 5 1.0
VOFF 21 10 -1.25
DA2 24 25 DMOD1
VSENS1 25 26 DC 0
RSET 26 10 1K
CSET 26 10 1E-10
FSET 10 31 VSENS1 1.0
R001 34 10 1K
FTEMP 10 27 VSENS1 1.0
DTA 27 10 DMOD2
DTB 28 29 DMOD2
VTEMP 29 10 DC 0
ECMR 38 10 11 10 1.0
VCMX 38 39 DC 0
RCM2 41 10 1MEG
EPSR 42 10 4 10 1.0
CDC1 43 42 10U
VPSX 43 44 DC 0
RPSR2 45 10 1MEG
FCXX 57 10 VCXX 100
DCX1 98 97 DMOD1
DCX2 95 94 DMOD1
RCX1 99 98 100
RCX2 94 99 100
VCXX 99 96 DC 0
ECMX 96 10 11 10 1.0
DLIM1 52 57 DMOD1
DLIM2 57 51 DMOD1
ELIMP 51 10 26 10 99.3
GDM 10 57 3 2 1
C1 58 59 1E-10
DCLMP2 59 40 DMOD1
DCLMP1 50 59 DMOD1
RO2 59 10 1K
GO3 10 71 59 10 1
RO3 71 10 1
DDN1 73 74 DMOD1
DDN2 73 710 DMOD1
DDP1 75 72 DMOD1
DDP2 71 720 DMOD1
RDN2 710 71 100
RDP 720 72 100
VOOP 40 76 DC 0
VOON 77 50 DC 0
QNO 76 73 78 NPN1
QNP 77 72 79 PNP1
RNO 78 81 1
RPO 79 81 1
VOX 86 6 DC 0
RNT 76 81 100MEG
RPT 81 77 1MEG
FX 10 93 VOX 1.0
DFX1 93 91 DMOD1
VFX1 91 10 DC 0
DFX2 92 93 DMOD1
VFX2 10 92 DC 0
FPX 4 10 VFX1 1.0
FNX 10 5 VFX2 1.0
RAX 122 10 1.004000E+03 RRAX 
* INPUT OFFSET VOLTAGE
.MODEL RRAX R (TC1=4.66E-05)
FIN1 18 5 VTEMP 0.97
FIN2 19 5 VTEMP 1.03
* INPUT BIAS CURRENTS
CIN1 2 10 1E-12
CIN2 3 10 1E-12
* COMMON MODE INPUT CAPACITANCE
RD1 18 11 500000
RD2 19 11 500000
* DIFF. INPUT RESISTANCE
RCM 11 10 2.75E+06
* COMMON MODE INPUT RESISTANCE
FCMR 10 57 VCMX 19.9526
* LOW FREQ. CMRR
FPSR 10 57 VPSX 56.3677
* LOW FREQ. PSRR
RSLOPE 4 5 100000
* SLOPE OF SUPP. CURR. VS. SUPP. VOLT.
GPWR 4 5 26 10 0.00135
* QUIESCENT SUPPLY CURRENT
ETEMP 27 28 32 33 0.196331
RIB 32 33 MRIB 1K
* TEMP. CO. OF INPUT CURRENTS
.MODEL MRIB R (TC1=0.00228762)
RISC 33 34 MRISC 1K
.MODEL MRISC R (TC1=-0.0015)
RCM1 39 41 199.526
CCM 41 10 1.59155E-09
* CMRR VS. FREQ.
RPSR1 44 45 281.838
CPSR 45 10 1.59155E-09
* PSRR VS. FREQ.
ELIMN 10 52 26 10 99.3
RDM 57 10 1475.22
C2 57 10 8.84306E-13
ECMP 40 97 26 10 0
ECMN 95 50 26 10 0
G2 58 10 57 10 3E-05
R2 58 10 22.5954
GO2 59 10 58 10 214
* AVOL AND SLEW-RATE SETTINGS
EPOS 40 74 26 10 0
ENEG 75 50 26 10 0.1
* OUTPUT VOLTAGE SWING SETTINGS
GSOURCE 74 73 33 34 6.2E-05
GSINK 72 75 33 34 0.000169
* OUTPUT CURRENT SETTINGS
ROO 81 86 2.5
.MODEL DMOD1 D
*-- DMOD1 DEFAULT PARAMETERS
*IS=1E-14 RS=0 N=1 TT=0 CJO=0
*VJ=1 M=0.5 EG=1.11 XTI=3 FC=0.5
*KF=0 AF=1 BV=INF IBV=1E-3 TNOM=27
.MODEL DMOD2 D  (IS=1E-17)
*-- DMOD2 DEFAULT PARAMETERS
*RS=0 N=1 TT=0 CJO=0
*VJ=1 M=0.5 EG=1.11 XTI=3 FC=0.5
*KF=0 AF=1 BV=INF IBV=1E-3 TNOM=27
.MODEL NPN1 NPN (BF=100 IS=1E-15)
*-- NPN1 DEFAULT PARAMETERS
*NF=1 VAF=INF IKF=INF ISE=0 NE=1.5
*BR=1 NR=1 VAR=INF IKR=INF ISC=0
*NC=2 RB=0 IRB=INF RBM=0 RE=0 RC=0
*CJE=0 VJE=0.75 MJE=0.33 TF=0 XTF=0
*VTF=INF ITF=0 PTF=0 CJC=0 VJC=0.75
*MJC=0.33 XCJC=1 TR=0 CJS=0 VJS=0.75
*MJS=0 XTB=0 EG=1.11 XTI=3 KF=0 AF=1
*FC=0.5 TNOM=27
.MODEL PNP1 PNP (BF=100 IS=1E-15)
*-- PNP1 DEFAULT PARAMETERS
*NF=1 VAF=INF IKF=INF ISE=0 NE=1.5
*BR=1 NR=1 VAR=INF IKR=INF ISC=0
*NC=2 RB=0 IRB=INF RBM=0 RE=0 RC=0
*CJE=0 VJE=0.75 MJE=0.33 TF=0 XTF=0
*VTF=INF ITF=0 PTF=0 CJC=0 VJC=0.75
*MJC=0.33 XCJC=1 TR=0 CJS=0 VJS=0.75
*MJS=0 XTB=0 EG=1.11 XTI=3 KF=0 AF=1
*FC=0.5 TNOM=27
.ENDS 
*****
*SRC=LM6152B;LM6152B;Opamps;NAT-"LMxxx";Low Power 75MHz
*SYM=NATOPAMP 
*
* CONNECTIONS:      NON-INVERTING INPUT
*                   |      INVERTING INPUT
*                   |      |      POSITIVE POWER SUPPLY
*                   |      |      |       NEGATIVE POWER SUPPLY
*                   |      |      |       |      OUTPUT
*                   |      |      |       |      |
*                   |      |      |       |      |
.SUBCKT LM6152B     3      2      4       5      6
*
*FEATURES
*RAIL TO RAIL OUTPUT SWING  
*GREATER THAN RAIL TO RAIL INPUT CMVR
*LOW SUPPLY CURRENT
* 
EOX 120 10 31 32 2.0
RCX 120 121 1K
RDX 121 10 1K
RBX 120 122 1K
GOS 10 57 122 121 1.0
RVOS 31 32 1K
RINB 2 18 1000
RINA 3 19 1000
DIN1 5 18 DMOD2
DIN2 18 4 DMOD2
DIN3 5 19 DMOD2
DIN4 19 4 DMOD2
EXX 10 5 17 5 1.0
EEE 10 50 17 5 1.0
ECC 40 10 4 17 1.0
RAA 4 17 100MEG
RBB 17 5 100MEG
ISET 10 24 1E-3
DA1 24 23 DMOD1
RBAL 23 22 1000
ESUPP 22 21 4 5 1.0
VOFF 21 10 -1.25
DA2 24 25 DMOD1
VSENS1 25 26 DC 0
RSET 26 10 1K
CSET 26 10 1E-10
FSET 10 31 VSENS1 1.0
R001 34 10 1K
FTEMP 10 27 VSENS1 1.0
DTA 27 10 DMOD2
DTB 28 29 DMOD2
VTEMP 29 10 DC 0
ECMR 38 10 11 10 1.0
VCMX 38 39 DC 0
RCM2 41 10 1MEG
EPSR 42 10 4 10 1.0
CDC1 43 42 10U
VPSX 43 44 DC 0
RPSR2 45 10 1MEG
FCXX 57 10 VCXX 100
DCX1 98 97 DMOD1
DCX2 95 94 DMOD1
RCX1 99 98 100
RCX2 94 99 100
VCXX 99 96 DC 0
ECMX 96 10 11 10 1.0
DLIM1 52 57 DMOD1
DLIM2 57 51 DMOD1
ELIMP 51 10 26 10 99.3
GDM 10 57 3 2 1
C1 58 59 1E-10
DCLMP2 59 40 DMOD1
DCLMP1 50 59 DMOD1
RO2 59 10 1K
GO3 10 71 59 10 1
RO3 71 10 1
DDN1 73 74 DMOD1
DDN2 73 710 DMOD1
DDP1 75 72 DMOD1
DDP2 71 720 DMOD1
RDN2 710 71 100
RDP 720 72 100
VOOP 40 76 DC 0
VOON 77 50 DC 0
QNO 76 73 78 NPN1
QNP 77 72 79 PNP1
RNO 78 81 1
RPO 79 81 1
VOX 86 6 DC 0
RNT 76 81 100MEG
RPT 81 77 1MEG
FX 10 93 VOX 1.0
DFX1 93 91 DMOD1
VFX1 91 10 DC 0
DFX2 92 93 DMOD1
VFX2 10 92 DC 0
FPX 4 10 VFX1 1.0
FNX 10 5 VFX2 1.0
RAX 122 10 1.010000E+03 RRAX 
* INPUT OFFSET VOLTAGE
.MODEL RRAX R (TC1=4E-05)
FIN1 18 5 VTEMP 0.97
FIN2 19 5 VTEMP 1.03
* INPUT BIAS CURRENTS
CIN1 2 10 1E-12
CIN2 3 10 1E-12
* COMMON MODE INPUT CAPACITANCE
RD1 18 11 500000
RD2 19 11 500000
* DIFF. INPUT RESISTANCE
RCM 11 10 2.75E+06
* COMMON MODE INPUT RESISTANCE
FCMR 10 57 VCMX 19.9526
* LOW FREQ. CMRR
FPSR 10 57 VPSX 56.3677
* LOW FREQ. PSRR
RSLOPE 4 5 100000
* SLOPE OF SUPP. CURR. VS. SUPP. VOLT.
GPWR 4 5 26 10 0.00135
* QUIESCENT SUPPLY CURRENT
ETEMP 27 28 32 33 0.196331
RIB 32 33 MRIB 1K
* TEMP. COEFF. OF INPUT CURRENTS
.MODEL MRIB R (TC1=0.00210981)
RISC 33 34 MRISC 1K
.MODEL MRISC R (TC1=-0.0015)
RCM1 39 41 199.526
CCM 41 10 1.59155E-09
* CMRR VS. FREQ.
RPSR1 44 45 281.838
CPSR 45 10 1.59155E-09
* PSRR VS. FREQ.
ELIMN 10 52 26 10 99.3
RDM 57 10 1475.22
C2 57 10 8.84306E-13
ECMP 40 97 26 10 0
ECMN 95 50 26 10 0
G2 58 10 57 10 3E-05
R2 58 10 22.5954
GO2 59 10 58 10 214
* AVOL AND SLEW-RATE SETTINGS
EPOS 40 74 26 10 0
ENEG 75 50 26 10 0.1
* OUTPUT VOLTAGE SWING SETTINGS
GSOURCE 74 73 33 34 6.2E-05
GSINK 72 75 33 34 0.000169
* OUTPUT CURRENT SETTINGS
ROO 81 86 2.5
.MODEL DMOD1 D
*-- DMOD1 DEFAULT PARAMETERS
*IS=1E-14 RS=0 N=1 TT=0 CJO=0
*VJ=1 M=0.5 EG=1.11 XTI=3 FC=0.5
*KF=0 AF=1 BV=INF IBV=1E-3 TNOM=27
.MODEL DMOD2 D  (IS=1E-17)
*-- DMOD2 DEFAULT PARAMETERS
*RS=0 N=1 TT=0 CJO=0
*VJ=1 M=0.5 EG=1.11 XTI=3 FC=0.5
*KF=0 AF=1 BV=INF IBV=1E-3 TNOM=27
.MODEL NPN1 NPN (BF=100 IS=1E-15)
*-- NPN1 DEFAULT PARAMETERS
*NF=1 VAF=INF IKF=INF ISE=0 NE=1.5
*BR=1 NR=1 VAR=INF IKR=INF ISC=0
*NC=2 RB=0 IRB=INF RBM=0 RE=0 RC=0
*CJE=0 VJE=0.75 MJE=0.33 TF=0 XTF=0
*VTF=INF ITF=0 PTF=0 CJC=0 VJC=0.75
*MJC=0.33 XCJC=1 TR=0 CJS=0 VJS=0.75
*MJS=0 XTB=0 EG=1.11 XTI=3 KF=0 AF=1
*FC=0.5 TNOM=27
.MODEL PNP1 PNP (BF=100 IS=1E-15)
*-- PNP1 DEFAULT PARAMETERS
*NF=1 VAF=INF IKF=INF ISE=0 NE=1.5
*BR=1 NR=1 VAR=INF IKR=INF ISC=0
*NC=2 RB=0 IRB=INF RBM=0 RE=0 RC=0
*CJE=0 VJE=0.75 MJE=0.33 TF=0 XTF=0
*VTF=INF ITF=0 PTF=0 CJC=0 VJC=0.75
*MJC=0.33 XCJC=1 TR=0 CJS=0 VJS=0.75
*MJS=0 XTB=0 EG=1.11 XTI=3 KF=0 AF=1
*FC=0.5 TNOM=27
.ENDS 
*****
*SRC=LM6171A;LM6171A;Opamps;NAT-"LMxxx";Low Power, High Speed
*SYM=NATOPAMP 
*
*CONNECTIONS       NON-INVERTING INPUT
*                  | INVERTING INPUT
*                  | | POSITIVE POWER SUPPLY
*                  | | | NEGATIVE POWER SUPPLY
*                  | | | | OUTPUT
*                  | | | | |
.SUBCKT LM6171A    3 2 4 5 6
* CAUTION:  SET .OPTIONS GMIN=1E-16 TO CORRECTLY MODEL 
* INPUT BIAS CURRENT.
* FEATURES:
* +/-15V OPERATION
* UNITY GAIN STABLE
* OFFSET VOLTAGE (MAX) =             3MV
* GAIN-BANDWIDTH PRODUCT =           100 MHZ 
* SUPPLY CURRENT =                   2.5MA
* SLEW RATE =                        3600V/US
* OPEN LOOP GAIN =                   90DB
EOX 120 10 31 32 2.0
RCX 120 121 1K
RDX 121 10 1K
RBX 120 122 1K
GOS 10 57 122 121 1.0
RVOS 31 32 1K
RINB 2 18 1000
RINA 3 19 1000
DIN1 5 18 DMOD2
DIN2 18 4 DMOD2
DIN3 5 19 DMOD2
DIN4 19 4 DMOD2
EXX 10 5 17 5 1.0
EEE 10 50 17 5 1.0
ECC 40 10 4 17 1.0
RAA 4 17 100MEG
RBB 17 5 100MEG
ISET 10 24 1E-3
DA1 24 23 DMOD1
RBAL 23 22 1000
ESUPP 22 21 4 5 1.0
VOFF 21 10 -1.25
DA2 24 25 DMOD1
VSENS1 25 26 DC 0
RSET 26 10 1K
CSET 26 10 1E-10
FSET 10 31 VSENS1 1.0
R001 34 10 1K
FTEMP 10 27 VSENS1 1.0
DTA 27 10 DMOD2
DTB 28 29 DMOD2
VTEMP 29 10 DC 0
ECMR 38 10 11 10 1.0
VCMX 38 39 DC 0
RCM2 41 10 1MEG
EPSR 42 10 4 10 1.0
CDC1 43 42 10U
VPSX 43 44 DC 0
RPSR2 45 10 1MEG
FCXX 57 10 VCXX 100
DCX1 98 97 DMOD1
DCX2 95 94 DMOD1
RCX1 99 98 100
RCX2 94 99 100
VCXX 99 96 DC 0
ECMX 96 10 11 10 1.0
DLIM1 52 57 DMOD1
DLIM2 57 51 DMOD1
ELIMP 51 10 26 10 99.3
GDM 10 57 3 2 1
C1 58 59 1E-10
DCLMP2 59 40 DMOD1
DCLMP1 50 59 DMOD1
RO2 59 10 1K
GO3 10 71 59 10 1
RO3 71 10 1
DDN1 73 74 DMOD1
DDN2 73 710 DMOD1
DDP1 75 72 DMOD1
DDP2 71 720 DMOD1
RDN2 710 71 100
RDP 720 72 100
VOOP 40 76 DC 0
VOON 77 50 DC 0
QNO 76 73 78 NPN1
QNP 77 72 79 PNP1
RNO 78 81 1
RPO 79 81 1
VOX 86 6 DC 0
RNT 76 81 100MEG
RPT 81 77 1MEG
FX 10 93 VOX 1.0
DFX1 93 91 DMOD1
VFX1 91 10 DC 0
DFX2 92 93 DMOD1
VFX2 10 92 DC 0
FPX 4 10 VFX1 1.0
FNX 10 5 VFX2 1.0
RAX 122 10 1.006000E+03 RRAX 
.MODEL RRAX R (TC1=-1.1E-05)
FIN1 18 5 VTEMP 0.985
FIN2 19 5 VTEMP 1.015
CIN1 2 10 1E-12
CIN2 3 10 1E-12
RD1 18 11 2.45E+06
RD2 19 11 2.45E+06
RCM 11 10 3.8775E+07
FCMR 10 57 VCMX 3.16228
FPSR 10 57 VPSX 63.2456
RSLOPE 4 5 33333.3
GPWR 4 5 26 10 0.0016
ETEMP 27 28 32 33 0.178427
RIB 32 33 MRIB 1K
.MODEL MRIB R (TC1=0.00389579)
RISC 33 34 MRISC 1K
.MODEL MRISC R (TC1=-0.002)
RCM1 39 41 10
CCM 41 10 2.65258E-11
RPSR1 44 45 100
CPSR 45 10 1.59155E-10
ELIMN 10 52 26 10 91.8926
RDM 57 10 23.5073
C2 57 10 4.78743E-11
ECMP 40 97 26 10 2
ECMN 95 50 26 10 2
G2 58 10 57 10 0.00378
R2 58 10 11.254
GO2 59 10 58 10 35
EPOS 40 74 26 10 1.4
ENEG 75 50 26 10 1.5
GSOURCE 74 73 33 34 0.00135
GSINK 72 75 33 34 0.00135
ROO 81 86 13
.MODEL DMOD1 D
*-- DMOD1 DEFAULT PARAMETERS
*IS=1E-14 RS=0 N=1 TT=0 CJO=0
*VJ=1 M=0.5 EG=1.11 XTI=3 FC=0.5
*KF=0 AF=1 BV=INF IBV=1E-3 TNOM=27
.MODEL DMOD2 D  (IS=1E-17)
*-- DMOD2 DEFAULT PARAMETERS
*RS=0 N=1 TT=0 CJO=0
*VJ=1 M=0.5 EG=1.11 XTI=3 FC=0.5
*KF=0 AF=1 BV=INF IBV=1E-3 TNOM=27
.MODEL NPN1 NPN (BF=100 IS=1E-15)
*-- NPN1 DEFAULT PARAMETERS
*NF=1 VAF=INF IKF=INF ISE=0 NE=1.5
*BR=1 NR=1 VAR=INF IKR=INF ISC=0
*NC=2 RB=0 IRB=INF RBM=0 RE=0 RC=0
*CJE=0 VJE=0.75 MJE=0.33 TF=0 XTF=0
*VTF=INF ITF=0 PTF=0 CJC=0 VJC=0.75
*MJC=0.33 XCJC=1 TR=0 CJS=0 VJS=0.75
*MJS=0 XTB=0 EG=1.11 XTI=3 KF=0 AF=1
*FC=0.5 TNOM=27
.MODEL PNP1 PNP (BF=100 IS=1E-15)
*-- PNP1 DEFAULT PARAMETERS
*NF=1 VAF=INF IKF=INF ISE=0 NE=1.5
*BR=1 NR=1 VAR=INF IKR=INF ISC=0
*NC=2 RB=0 IRB=INF RBM=0 RE=0 RC=0
*CJE=0 VJE=0.75 MJE=0.33 TF=0 XTF=0
*VTF=INF ITF=0 PTF=0 CJC=0 VJC=0.75
*MJC=0.33 XCJC=1 TR=0 CJS=0 VJS=0.75
*MJS=0 XTB=0 EG=1.11 XTI=3 KF=0 AF=1
*FC=0.5 TNOM=27
.ENDS
*****
*SRC=LM6171B;LM6171B;Opamps;NAT-"LMxxx";Low Power, High Speed
*SYM=NATOPAMP 
*
*CONNECTIONS       NON-INVERTING INPUT
*                  | INVERTING INPUT
*                  | | POSITIVE POWER SUPPLY
*                  | | | NEGATIVE POWER SUPPLY
*                  | | | | OUTPUT
*                  | | | | |
.SUBCKT LM6171B    3 2 4 5 6
* CAUTION:  SET .OPTIONS GMIN=1E-16 TO CORRECTLY MODEL 
* INPUT BIAS CURRENT.
* FEATURES:
* +/-15V OPERATION
* UNITY GAIN STABLE
* OFFSET VOLTAGE (MAX) =             6MV
* GAIN-BANDWIDTH PRODUCT =           100 MHZ 
* SUPPLY CURRENT =                   2.5MA
* SLEW RATE =                        3600V/US
* OPEN LOOP GAIN =                   90DB
EOX 120 10 31 32 2.0
RCX 120 121 1K
RDX 121 10 1K
RBX 120 122 1K
GOS 10 57 122 121 1.0
RVOS 31 32 1K
RINB 2 18 1000
RINA 3 19 1000
DIN1 5 18 DMOD2
DIN2 18 4 DMOD2
DIN3 5 19 DMOD2
DIN4 19 4 DMOD2
EXX 10 5 17 5 1.0
EEE 10 50 17 5 1.0
ECC 40 10 4 17 1.0
RAA 4 17 100MEG
RBB 17 5 100MEG
ISET 10 24 1E-3
DA1 24 23 DMOD1
RBAL 23 22 1000
ESUPP 22 21 4 5 1.0
VOFF 21 10 -1.25
DA2 24 25 DMOD1
VSENS1 25 26 DC 0
RSET 26 10 1K
CSET 26 10 1E-10
FSET 10 31 VSENS1 1.0
R001 34 10 1K
FTEMP 10 27 VSENS1 1.0
DTA 27 10 DMOD2
DTB 28 29 DMOD2
VTEMP 29 10 DC 0
ECMR 38 10 11 10 1.0
VCMX 38 39 DC 0
RCM2 41 10 1MEG
EPSR 42 10 4 10 1.0
CDC1 43 42 10U
VPSX 43 44 DC 0
RPSR2 45 10 1MEG
FCXX 57 10 VCXX 100
DCX1 98 97 DMOD1
DCX2 95 94 DMOD1
RCX1 99 98 100
RCX2 94 99 100
VCXX 99 96 DC 0
ECMX 96 10 11 10 1.0
DLIM1 52 57 DMOD1
DLIM2 57 51 DMOD1
ELIMP 51 10 26 10 99.3
GDM 10 57 3 2 1
C1 58 59 1E-10
DCLMP2 59 40 DMOD1
DCLMP1 50 59 DMOD1
RO2 59 10 1K
GO3 10 71 59 10 1
RO3 71 10 1
DDN1 73 74 DMOD1
DDN2 73 710 DMOD1
DDP1 75 72 DMOD1
DDP2 71 720 DMOD1
RDN2 710 71 100
RDP 720 72 100
VOOP 40 76 DC 0
VOON 77 50 DC 0
QNO 76 73 78 NPN1
QNP 77 72 79 PNP1
RNO 78 81 1
RPO 79 81 1
VOX 86 6 DC 0
RNT 76 81 100MEG
RPT 81 77 1MEG
FX 10 93 VOX 1.0
DFX1 93 91 DMOD1
VFX1 91 10 DC 0
DFX2 92 93 DMOD1
VFX2 10 92 DC 0
FPX 4 10 VFX1 1.0
FNX 10 5 VFX2 1.0
RAX 122 10 1.012000E+03 RRAX
.MODEL RRAX R (TC1=-1.1E-05)
FIN1 18 5 VTEMP 0.985
FIN2 19 5 VTEMP 1.015
CIN1 2 10 1E-12
CIN2 3 10 1E-12
RD1 18 11 2.45E+06
RD2 19 11 2.45E+06
RCM 11 10 3.8775E+07
FCMR 10 57 VCMX 3.16228
FPSR 10 57 VPSX 63.2456
RSLOPE 4 5 33333.3
GPWR 4 5 26 10 0.0016
ETEMP 27 28 32 33 0.178427
RIB 32 33 MRIB 1K
.MODEL MRIB R (TC1=0.00389579)
RISC 33 34 MRISC 1K
.MODEL MRISC R (TC1=-0.002)
RCM1 39 41 10
CCM 41 10 2.65258E-11
RPSR1 44 45 100
CPSR 45 10 1.59155E-10
ELIMN 10 52 26 10 91.8926
RDM 57 10 23.5073
C2 57 10 4.78743E-11
ECMP 40 97 26 10 2
ECMN 95 50 26 10 2
G2 58 10 57 10 0.00378
R2 58 10 11.254
GO2 59 10 58 10 35
EPOS 40 74 26 10 1.4
ENEG 75 50 26 10 1.5
GSOURCE 74 73 33 34 0.00135
GSINK 72 75 33 34 0.00135
ROO 81 86 13
.MODEL DMOD1 D
.MODEL DMOD2 D  (IS=1E-17)
.MODEL NPN1 NPN (BF=100 IS=1E-15)
.MODEL PNP1 PNP (BF=100 IS=1E-15)
.ENDS
*****
*SRC=LM6172;LM6172;Opamps;NAT-"LMxxx";Low Power, High Speed
*SYM=NATOPAMP 
*
* CONNECTIONS:      NON-INVERTING INPUT
*                   |      INVERTING INPUT
*                   |      |      POSITIVE POWER SUPPLY
*                   |      |      |       NEGATIVE POWER SUPPLY
*                   |      |      |       |      OUTPUT
*                   |      |      |       |      |
*                   |      |      |       |      |
.SUBCKT LM6172      3      2      4       5      6
* CAUTION:  SET .OPTIONS GMIN=1E-16 TO CORRECTLY MODEL 
* INPUT BIAS CURRENT.
* FEATURES:
* +/-15V OPERATION
* UNITY GAIN STABLE
* OFFSET VOLTAGE (MAX) =             3MV
* GAIN-BANDWIDTH PRODUCT =           100 MHZ 
* SUPPLY CURRENT =                   2.3MA
* SLEW RATE =                        3000V/US
EOX 120 10 31 32 2.0
RCX 120 121 1K
RDX 121 10 1K
RBX 120 122 1K
GOS 10 57 122 121 1.0
RVOS 31 32 1K
RINB 2 18 1000
RINA 3 19 1000
DIN1 5 18 DMOD2
DIN2 18 4 DMOD2
DIN3 5 19 DMOD2
DIN4 19 4 DMOD2
EXX 10 5 17 5 1.0
EEE 10 50 17 5 1.0
ECC 40 10 4 17 1.0
RAA 4 17 100MEG
RBB 17 5 100MEG
ISET 10 24 1E-3
DA1 24 23 DMOD1
RBAL 23 22 1000
ESUPP 22 21 4 5 1.0
VOFF 21 10 -1.25
DA2 24 25 DMOD1
VSENS1 25 26 DC 0
RSET 26 10 1K
CSET 26 10 1E-10
FSET 10 31 VSENS1 1.0
R001 34 10 1K
FTEMP 10 27 VSENS1 1.0
DTA 27 10 DMOD2
DTB 28 29 DMOD2
VTEMP 29 10 DC 0
ECMR 38 10 11 10 1.0
VCMX 38 39 DC 0
RCM2 41 10 1MEG
EPSR 42 10 4 10 1.0
CDC1 43 42 10U
VPSX 43 44 DC 0
RPSR2 45 10 1MEG
FCXX 57 10 VCXX 100
DCX1 98 97 DMOD1
DCX2 95 94 DMOD1
RCX1 99 98 100
RCX2 94 99 100
VCXX 99 96 DC 0
ECMX 96 10 11 10 1.0
DLIM1 52 57 DMOD1
DLIM2 57 51 DMOD1
ELIMP 51 10 26 10 99.3
GDM 10 57 3 2 1
C1 58 59 1E-10
DCLMP2 59 40 DMOD1
DCLMP1 50 59 DMOD1
RO2 59 10 1K
GO3 10 71 59 10 1
RO3 71 10 1
DDN1 73 74 DMOD1
DDN2 73 710 DMOD1
DDP1 75 72 DMOD1
DDP2 71 720 DMOD1
RDN2 710 71 100
RDP 720 72 100
VOOP 40 76 DC 0
VOON 77 50 DC 0
QNO 76 73 78 NPN1
QNP 77 72 79 PNP1
RNO 78 81 1
RPO 79 81 1
VOX 86 6 DC 0
RNT 76 81 100MEG
RPT 81 77 1MEG
FX 10 93 VOX 1.0
DFX1 93 91 DMOD1
VFX1 91 10 DC 0
DFX2 92 93 DMOD1
VFX2 10 92 DC 0
FPX 4 10 VFX1 1.0
FNX 10 5 VFX2 1.0
RAX 122 1 1.005990E+030 RRAX
* INPUT OFFSET VOLTAGE
.MODEL RRAX R (TC1=-1.1E-05)
FIN1 18 5 VTEMP 0.991667
FIN2 19 5 VTEMP 1.00833
* INPUT BIAS CURRENTS
CIN1 2 10 1E-12
CIN2 3 10 1E-12
* COMMON MODE INPUT CAPACITANCE
RD1 18 11 2.45E+06
RD2 19 11 2.45E+06
* DIFF. INPUT RESISTANCE
RCM 11 10 3.8775E+07
* COMMON MODE INPUT RESISTANCE
FCMR 10 57 VCMX 3.16228
* LOW FREQ. CMRR
FPSR 10 57 VPSX 63.2456
* LOW FREQ. PSRR
RSLOPE 4 5 33333.3
* SLOPE OF SUPP. CURR. VS. SUPP. VOLT.
GPWR 4 5 26 10 0.0014
* QUIESCENT SUPPLY CURRENT
ETEMP 27 28 32 33 0.173718
RIB 32 33 MRIB 1K
* TEMP. COEFF. OF INPUT CURRENTS
.MODEL MRIB R (TC1=0.00445322)
RISC 33 34 MRISC 1K
.MODEL MRISC R (TC1=-0.002)
RCM1 39 41 10
CCM 41 10 2.65258E-11
* CMRR VS. FREQ.
RPSR1 44 45 100
CPSR 45 10 1.59155E-10
* PSRR VS. FREQ.
ELIMN 10 52 26 10 99.3
RDM 57 10 29.6192
C2 57 10 3.79954E-11
ECMP 40 97 26 10 2
ECMN 95 50 26 10 2
G2 58 10 57 10 0.003
R2 58 10 11.254
GO2 59 10 58 10 35
* AVOL AND SLEW-RATE SETTINGS
EPOS 40 74 26 10 1.4
ENEG 75 50 26 10 1.5
* OUTPUT VOLTAGE SWING SETTINGS
GSOURCE 74 73 33 34 0.00107
GSINK 72 75 33 34 0.00105
* OUTPUT CURRENT SETTINGS
ROO 81 86 13
.MODEL DMOD1 D
.MODEL DMOD2 D  (IS=1E-17)
.MODEL NPN1 NPN (BF=100 IS=1E-15)