*********
* TD=(L(in mils)* f * sqrt(k))/11.86E12 ex. 50mil, .9G, K=5 --> TD=8.484M
* Missing
NE25139 - no data
NE25339 - no data
NE33200 - mesfet curtice model
NE71000 - mesfet curtice model
NE76000 - mesfet curtice model
***************
*SYM=RFNBJT
*SRC=NE46100;NE46100;BJTs NPN;RF;NEC
.SUBCKT NE46100 10 20 30
* LAST MODIFIED:   9/95
* BIAS CONDITIONS: Vce=5V to 12.5V, Ic=50mA to 100mA
* FREQ RANGE:      0.1GHz TO 4.0GHz
*
*                    CCB
*                .---||---.                 CCB=0.03pF
*                |        |C                CCE=0.5pF
*                |   /----o---LC----o       
*      o----LB---o--|     |                 LB=0.66nH (QTY 1-25.9mil)
*                B   \   --                 LC=0.38nH (QTY 1-18.2mil)
*                    |   -- CCE             LE=0.18nH (QTY 2-22.4mil)
*                  E o----'                 Bond wire: 0.7mil 
*                    |                                 diameter gold
*                   LE
*                    |
*                    o
*
Q1 1 2 3 NE46100x
LC 10 1 0.38NH
LB 20 2 0.66NH
LE 30 3 0.18NH
CCB 1 2 0.03PF
CCE 1 3 0.5PF
.MODEL NE46100x NPN
+ ( IS=8.7e-16    BF=185.0         NF=0.959       VAF=30.0         IKF=0.20
+ ISE=5.70e-13   NE=1.80          BR=5.0         NR=1.0           VAR=12.4  
+ IKR=0.018      ISC=1.0e-14      NC=1.95        RE=0.630         RB=6.0
+ RBM=4.0        IRB=0.004        RC=3.0         CJE=4.9e-12      VJE=0.60
+ MJE=0.450      CJC=2.50e-12     VJC=0.830      MJC=0.330        XCJC=0.20
+ CJS=0.0        VJS=0.750        MJS=0.0        FC=0.50          TF=12.9e-12 
+ XTF=1.60       VTF=19.9         ITF=0.40       PTF=0.0          TR=1.70e-8 
+ EG=1.11        XTB=0.0          XTI=3.0        KF=0.0           AF=1.0 )
.ENDS
****************
*SYM=RFNBJT
*SRC=NE46134;NE46134;BJTs NPN;RF;NEC
.SUBCKT NE46134 10 20 30
* LAST MODIFIED:   9/95
* BIAS CONDITIONS: Vce=5V, to 12.5V,  Ic=50mA to 100mA
* FREQ RANGE:      0.1GHz TO 2.5GHz
*                            CCBpkg
*                    .-------||--------.  
*                    |          CCB    |   
*                    |      .--||---.  |          COLLECTOR
* BASE               |      |        | |             
*             __Tb_  |      |   /----o-o----------o----o
*  o---------|_____|-o-LB---o--|Q1   |            |  
*                    |      B   \   --            |  
*                   --          |   -- CCE       --  
*                   -- CBEpkg E o----'           --CCEpkg
*                    |          |                 | 
*                    |         LE                 |  
*                    `----------o-----------------'  
*                               |                  
*                               -                  
*                              | |  Te             
*                              | |                 
*                               -                  
*                               |
*                               |
*                               o EMITTER
*                    
*
*       CCB   = 0.03 pF       LB  = 1.2nH          Tb/Te:   
*       CCE   = 0.5 pF        LE  = 1.2nH          z=60 ohms
*       CCBpkg= 0.18pF                             l=50 mils
*       CCEpkg= 0.18pF                             a=0.0001
*       CBEpkg= 0.01pF                             f=0.9GHz
*                                                  k=5
Q1 10 2 3 NE461x
LB 200 2 1.2NH
LE 300 3 1.2NH
CCB 10 2 0.03PF
CCE 10 3 0.5PF
CCBpkg 10 200 0.18PF
CCEpkg 10 300 0.18PF
CBEpkg 200 300 0.01PF
TB 200 0 20 0 Z0=60 TD=8.484E-3
TE 300 0 30 0 Z0=60 TD=8.484E-3
.MODEL NE461x NPN 
+ ( IS=8.70e-16   BF=185.0         NF=0.959       VAF=30.0         IKF=0.350
+ ISE=0.570e-12  NE=1.80          BR=5.0         NR=1.0           VAR=12.4  
+ IKR=0.018      ISC=1.0e-14      NC=1.95        RE=0.630         RB=6.0
+ RBM=4.0        IRB=0.004        RC=3.0         CJE=4.90e-12     VJE=0.60
+ MJE=0.450      CJC=2.50e-12     VJC=0.830      MJC=0.330        XCJC=0.20
+ CJS=0.0        VJS=0.750        MJS=0.0        FC=0.50          TF=12.9e-12  
+ XTF=1.60       VTF=19.9         ITF=0.40       PTF=0.0          TR=1.70e-8 
+ EG=1.11        XTB=0.0          XTI=3.0        KF=0.0           AF=1.0 )
.ENDS
**************
*SYM=RFNBJT
*SRC=NE68000;NE68000;BJTs NPN;RF;NEC
.SUBCKT NE68000 10 20 30
* LAST MODIFIED:   9/95
* BIAS CONDITIONS: Vce=1V to 6V, Ic=0.25mA to 20mA
* FREQ RANGE:      0.1GHZ TO 20.1GHZ
*
*                    CCB
*                .---||---.                 CCB=0.08pF
*                |        |C                CCE=0.08pF
*                |   /----o---LC----o       
*      o----LB---o--|     |                 LB=0.302nH   (QTY 1-11.7mil)
*                B   \   --                 LC=0.113nH   (QTY 1- 7.8mil)
*                    |   -- CCE             LE=0.183nH   (QTY 2-17.7mil)
*                  E o----'                 Bond wire: 0.7mil 
*                    |                                 diameter gold
*                   LE
*                    |
*                    o
*
Q1 1 2 3 NE680
LC 10 1 0.113NH
LB 20 2 0.302NH
LE 30 3 0.183NH
CCB 1 2 0.08PF
CCE 1 3 0.08PF
.MODEL NE680 NPN 
+ (IS=3.84e-16    BF=124.9         NF=1.04        VAF=11.9         IKF=0.027
+ ISE=1.0e-14    NE=2.17          BR=1.0         NR=1.05          VAR=0.0
+ IKR=0.0        ISC=0.0          NC=2.0         RE=0.6           RB=17.9  
+ RBM=1.02       IRB=4.01e-4      RC=10.46       CJE=0.358e-12    VJE=0.711
+ MJE=0.5        CJC=0.162e-12    VJC=0.791      MJC=0.638        XCJC=0.0
+ CJS=0.0        VJS=0.750        MJS=0.0        FC=0.50          TF=8.7e-12    
+ XTF=18.0       VTF=19.1         ITF=.0818      PTF=0.0          TR=0.635e-9
+ EG=1.11        XTB=0.0          XTI=3.0        KF=0.0           AF=1.0 )
.ENDS
*******************
*SYM=RFNBJT
*SRC=NE68018;NE68018;BJTs NPN;RF;NEC
.SUBCKT NE68018 10 20 30
* LAST MODIFIED:    5/96
* BIAS CONDITIONS:  Vce=1V to 6V, Ic=1mA to 15mA
* FREQ RANGE:       0.1GHz TO 5GHz
*
*                                      CCBpkg
*                             ,--------||-----------.                          
*                             |                     |
*                             |        CCB          |
*                             |    .---||---.       |              
*            BASE             |    |        |       |             COLLECTOR    
*                             |    |   /----o--LC---o--------Lcx------o
*            o-------Lbx------o-LB-o--|Q1   |       |         
*                             |    B   \   --       |         
*                             |        |   -- CCE  --         
*                      CBEpkg--      E o----'      -- CCEpkg  
*                            --        |            |     
*                             |       LE            |     
*                             '--------o------------'     
*                                      |
*                                      |
*                                     Lex               
*                                      | 
*                                      o EMITTER
*                    
*       CCB    = 0.08pF           LB  = 1.38nH
*       CCE    = 0.08pF           LE  = 0.85nH
*                                 LC  = 2.55nH
*       CCBpkg = 0.14pF           Lbx = 0.18nH
*       CCEpkg = 0.58pF           Lcx = 0.47nH
*       CBEpkg = 0.29pF           Lex = 0.09nH
*
Q1 1 2 3 NE68018x
LB 200 2 1.38NH
LE 300 3 0.85NH
LC 100 1 2.55NH
CCB 1 2 0.08PF
CCE 1 3 0.08PF
CCBpkg 100 200 0.14PF
CCEpkg 100 300 0.58PF
CBEpkg 200 300 0.29PF
Lbx 200 20 0.18NH
Lcx 100 10 0.47NH
Lex 300 30 0.09NH
.MODEL NE68018x NPN 
+(IS=3.84e-16    BF=124.9         NF=1.04        VAF=11.9         IKF=0.027
+ ISE=1.0e-14    NE=2.17          BR=1.0         NR=1.05          VAR=0.0
+ IKR=0.0        ISC=0.0          NC=2.0         RE=0.6           RB=17.9  
+ RBM=1.02       IRB=4.01e-4      RC=10.46       CJE=0.358e-12    VJE=0.711
+ MJE=0.5        CJC=0.162e-12    VJC=0.791      MJC=0.638        XCJC=0.0
+ CJS=0.0        VJS=0.750        MJS=0.0        FC=0.50          TF=8.7e-12    
+ XTF=18.0       VTF=19.1         ITF=.0818      PTF=0.0          TR=0.635e-9
+ EG=1.11        XTB=0.0          XTI=3.0        KF=0.0           AF=1.0 )
.ENDS
*********************
*SYM=RFNBJT
*SRC=NE68019;NE68019;BJTs NPN;RF;NEC
.SUBCKT NE68019 10 20 30
* LAST MODIFIED:   1/96
* BIAS CONDITIONS: Vce=1V to 6V,  Ic=1mA to 15mA
* FREQ RANGE:      0.05GHz to 3GHz
*
*
*                                      CCBpkg
*                             ,--------||-----------.                          
*                             |                     |
*                             |        CCB          |
*                             |    .---||---.       |              
*            BASE             |    |        |       |             COLLECTOR    
*                             |    |   /----o-------o--------Lcx------o
*            o-------Lbx------o-LB-o--|Q1   |       |         
*                                  B   \   --       |         
*                                      |   -- CCE  --         
*                                    E o----'      -- CCEpkg  
*                                      |            |     
*                                     LE            |     
*                                      o------------'     
*                                      |
*                                      |
*                                     Lex               
*                                      | 
*                                      o EMITTER
*                    
*       CCB    = 0.08pF           LB  = 0.72nH
*       CCE    = 0.08pF           LE  = 0.76nH
*       CCBpkg = 0.17pF           Lbx = 0.19nH
*       CCEpkg = 0.21pF           Lcx = 0.19nH
*                                 Lex = 0.19nH
*       
Q1 1 2 3 NE68019x
LB 200 2 0.72NH
LE 300 3 0.76NH
CCB 1 2 0.08PF
CCE 1 3 0.08PF
CCBpkg 100 200 0.17PF
CCEpkg 100 300 0.21PF
Lbx 200 20 0.19NH
Lcx 100 10 0.19NH
Lex 300 30 0.19NH
.MODEL NE68019x NPN 
+ ( IS=3.84e-16   BF=124.9         NF=1.05        VAF=11.87        IKF=0.027 
+ ISE=1.0e-14    NE=2.17          BR=1.0         NR=1.05          VAR=0.0 
+ IKR=0.0        ISC=0.0          NC=2.0         RE=0.60          RB=17.9  
+ RBM=1.02       IRB=4.01e-4      RC=10.5        CJE=0.358e-12    VJE=0.711 
+ MJE=0.50       CJC=0.162e-12    VJC=0.791      MJC=0.638        XCJC=0.0 
+ CJS=0.0        VJS=0.750        MSJ=0.0        FC=0.50          TF=8.70e-12         
+ XTF=18.0       VTF=19.1         ITF=0.082      PTF=0.0          TR=0.635e-9                
+ EG=1.11        XTB=0.0          XTI=3.0        KF=0.0           AF=1.0 )
.ENDS
*******************
*SYM=RFNBJT
*SRC=NE68030;NE68030;BJTs NPN;RF;NEC
.SUBCKT NE68030 10 20 30
* LAST MODIFIED:   9/95
* BIAS CONDITIONS: Vce=2.5V to 6V,  Ic=0.3mA to 20mA
* FREQ RANGE:      0.05GHz TO 3.0GHz
*
*
*                                      CCBpkg
*                             ,--------||-----------.                          
*                             |                     |
*                             |        CCB          |
*                             |    .---||---.       |              
* BASE                        |    |        |       |             COLLECTOR    
*                  _____      |    |   /----o-------o--------Lext-----o
*  o-Lext----o----|_____|-----o-LB-o--|Q1   |       |         
*                    z=120    |    B   \   --       |         
*                    k=1.9    |        |   -- CCE  --         
*                    l=45mil  --CBE  E o----'      -- CCEpkg  
*                    f=1GHz   -- pkg   |            |     
*                    a=0.001  |       LE            |     
*                             `--------o------------'     
*                                      |                 
*                                      -  z=120         
*                                     | | k=1.9        
*                                     | | l=45mil         
*                                      -  f=1GHz
*                                      |  a=0.001
*                                     Lext              
*                                      | 
*                                      o EMITTER
*                    
*       CCB    = 0.08pF           LB  = 0.3nH
*       CCE    = 0.08pF           LE  = 0.3nH
*       CCBpkg = 0.12pF           Lext= 0.324nH
*       CCEpkg = 0.12pF
*       CBEpkg = 0.003pF
* 
Q1 1 2 3 NE68030x
LB 200 2 0.3NH
LE 300 3 0.3NH
CCB 1 2 0.08PF
CCE 1 3 0.08PF
CCBpkg 100 200 0.12PF
CCEpkg 100 300 0.12PF
CBEpkg 200 300 0.003PF
TB 200 0 20 0 Z0=120 TD=5.23E-3
TE 300 0 30 0 Z0=120 TD=5.23E-3
Lext 10 100 0.324NH
.MODEL NE68030x NPN 
+ ( IS=3.84e-16   BF=124.9         NF=1.05        VAF=11.87        IKF=0.027 
+ ISE=1.0e-14    NE=2.17          BR=1.0         NR=1.05          VAR=0.0 
+ IKR=0.0        ISC=0.0          NC=2.0         RE=0.60          RB=17.9  
+ RBM=1.02       IRB=4.01e-4      RC=10.5        CJE=0.358e-12    VJE=0.712
+ MJE=0.50       CJC=0.162e-12    VJC=0.791      MJC=0.638        XCJC=0.0 
+ CJS=0.0        VJS=0.750        MJS=0.0        FC=0.50          TF=8.70e-12        
+ XTF=18.0       VTF=19.1         ITF=0.082      PTF=0.0          TR=0.635e-9
+ EG=1.11        XTB=0.0          XTI=3.0        KF=0.0           AF=1.0 )
.ENDS
************************
*SYM=RFNBJT
*SRC=NE68033;NE68033;BJTs NPN;RF;NEC
.SUBCKT NE68033 10 20 30
* LAST MODIFIED:   9/95
* BIAS CONDITIONS: Vce=2.5V to 6V,  Ic=0.3mA to 20mA
* FREQ RANGE:      0.1GHz TO 3.0GHz
*
*
*                                      CCBpkg
*                             ,--------||-----------.                          
*                             |                     |
*                             |        CCB          |
*                             |    .---||---.       |              
* BASE                        |    |        |       |         COLLECTOR    
*                  _____      |    |   /----o-------o-------------o
*  o--------------|_____|-----o-LB-o--|Q1   |       |         
*                    z=63     |    B   \   --       |         
*                    k=4.4    |        |   -- CCE  --         
*                    l=33mil  --CBE  E o----'      -- CCEpkg  
*                    f=1GHz   -- pkg   |            |     
*                    a=0.0001 |       LE            |     
*                             `--------o------------'     
*                                      |                 
*                                      -  z=63          
*                                     | | k=4.4        
*                                     | | l=33mil         
*                                      -  f=1GHz
*                                      |  a=0.0001
*                                      | 
*                                      o EMITTER
*                    
*       CCB    = 0.08pF           LB  = 0.95nH
*       CCE    = 0.08pF           LE  = 0.95nH
*       CCBpkg = 0.1pF	 
*       CCEpkg = 0.1pF
*       CBEpkg = 0.001pF
*
Q1 10 2 3 NE68033x
LB 200 2 0.95NH
LE 300 3 0.95NH
CCB 10 2 0.08PF
CCE 10 3 0.08PF
CCBpkg 10 200 0.1PF
CCEpkg 10 300 0.1PF
CBEpkg 200 300 0.001PF
TB 200 0 20 0 Z0=63 TD=5.84E-3
TE 300 0 30 0 Z0=63 TD=5.84E-3
.MODEL NE68033x NPN 
+ ( IS=3.84e-16   BF=124.9         NF=1.05        VAF=11.87        IKF=0.027 
+ ISE=1.0e-14    NE=2.17          BR=1.0         NR=1.05          VAR=0.0 
+ IKR=0.0        ISC=0.0          NC=2.0         RE=0.60          RB=17.9  
+ RBM=1.02       IRB=4.01e-4      RC=10.5        CJE=0.358e-12    VJE=0.711
+ MJE=0.50       CJC=0.162e-12    VJC=0.791      MJC=0.638        XCJC=0.0
+ CJS=0.0        VJS=0.750        MJS=0.0        FC=0.50          TF=8.70e-12        
+ XTF=18.0       VTF=19.1         ITF=0.082      PTF=0.0          TR=0.635e-9                
+ EG=1.11        XTB=0.0          XTI=3.0        KF=0.0           AF=1.0 )
.ENDS
********************
*SYM=RFNBJT
*SRC=NE68100;NE68100;BJTs NPN;RF;NEC
.SUBCKT NE68100 10 20 30
* LAST MODIFIED:   10/95
* BIAS CONDITIONS: VCE=8V, IC=7mA,20mA; VCE=2.5V, IC=0.3/1/3mA
* FREQ RANGE:      1.5GHz TO 10GHz
*
*                    CCB
*                .---||---.                 CCB=0.07pF
*                |        |C                CCE=0.01pF
*                |   /----o---LC----o       
*      o----LB---o--|     |                 LB=0.18nH   (QTY 1-13.4mil)
*                B   \   --                 LC=0.01nH   (QTY 1- 8.3mil)
*                    |   -- CCE             LE=0.15nH   (QTY 2-17.6mil)
*                  E o----'                 Bond wire: 0.7mil 
*                    |                                 diameter gold
*                   LE
*                    |
*                    o
*
Q1 1 2 3 NE68100x
LC 10 1 0.01NH
LB 20 2 0.18NH
LE 30 3 0.15NH
CCB 1 2 0.01PF
CCE 1 3 0.07PF
.MODEL NE68100x NPN 
+ ( IS=2.70e-16   BF=185.0         NF=1.02        VAF=15.0         IKF=0.055
+ ISE=1.77e-11   NE=2.10          BR=1.0         NR=1.0           VAR=0.0
+ IKR=0.0        ISC=0.0          NC=2.0         RE=0.6           RB=12.0
+ RBM=3.70       IRB=1.20e-5      RC=8.0         CJE=1.20e-12     VJE=0.770
+ MJE=0.50       CJC=0.80e-12     VJC=0.270      MJC=0.560        XCJC=0.0
+ CJS=0.0        VJS=0.750        MJS=0.0        FC=0.50          TF=14.0e-12
+ XTF=3.0        VTF=25.0         ITF=0.10       PTF=0.0          TR=0.30e-9
+ EG=1.11        XTB=0.0          XTI=3.0        KF=0.0           AF=1.0 )
.ENDS
*******************
*SYM=RFNBJT
*SRC=NE68118;NE68118;BJTs NPN;RF;NEC
.SUBCKT NE68118 10 20 30
* LAST MODIFIED:    4/96
* BIAS CONDITIONS:  Vce=2.5V to 8V, Ic=3mA to 10mA
* FREQ RANGE:       0.05GHz TO 3.0GHz
*
*                                      CCBpkg
*                             ,--------||-----------.                          
*                             |                     |
*                             |        CCB          |
*                             |    .---||---.       |              
*            BASE             |    |        |       |             COLLECTOR    
*                             |    |   /----o--LC---o--------Lcx------o
*            o-------Lbx------o-LB-o--|Q1   |       |         
*                             |    B   \   --       |         
*                             |        |   -- CCE  --         
*                      CBEpkg--      E o----'      -- CCEpkg  
*                            --        |            |     
*                             |       LE            |     
*                             '--------o------------'     
*                                      |
*                                      |
*                                     Lex               
*                                      | 
*                                      o EMITTER
*                    
*       CCB    = 0.07pF           LB  = 1.16nH
*       CCE    = 0.01pF           LE  = 0.83nH
*                                 LC  = 1.54nH
*       CCBpkg = 0.09pF           Lbx = 0.18nH
*       CCEpkg = 0.51pF           Lcx = 0.8nH
*       CBEpkg = 0.25pF           Lex = 0.09nH
*
Q1 1 2 3 NE68118x
LC 100 1 1.54NH
LB 200 2 1.16NH
LE 300 3 0.83NH
CCB 1 2 0.07PF
CCE 1 3 0.01PF
CCBpkg 100 200 0.09PF
CCEpkg 100 300 0.51PF
CBEpkg 200 300 0.25PF
Lbx 200 20 0.18NH
Lcx 100 10 0.8NH
Lex 300 30 0.09NH
.MODEL NE68118x NPN 
+ ( IS=2.70e-16   BF=185.0         NF=1.02        VAF=15.0         IKF=0.055
+ ISE=1.77e-11   NE=2.10          BR=1.0         NR=1.0           VAR=0.0
+ IKR=0.0        ISC=0.0          NC=2.0         RE=0.6           RB=12.0
+ RBM=3.70       IRB=1.20e-5      RC=8.0         CJE=1.20e-12     VJE=0.770
+ MJE=0.50       CJC=0.80e-12     VJC=0.270      MJC=0.560        XCJC=0.0
+ CJS=0.0        VJS=0.750        MJS=0.0        FC=0.50          TF=14.0e-12
+ XTF=3.0        VTF=25.0         ITF=0.10       PTF=0.0          TR=0.30e-9
+ EG=1.11        XTB=0.0          XTI=3.0        KF=0.0           AF=1.0 )
.ENDS
********************
*SYM=RFNBJT
*SRC=NE68119;NE68119;BJTs NPN;RF;NEC
.SUBCKT NE68119 10 20 30
* LAST MODIFIED:   1/96
* BIAS CONDITIONS: Vce=2.5V to 8.0V,  Ic=0.3mA to 10mA
* FREQ RANGE:      0.05GHz to 3GHz
*
*                            CCBpkg
*                    .-------||--------.  
*                    |          CCB    |   
*                    |      .--||---.  |       COLLECTOR
* BASE               |      |        | |             
*                    |      |   /----o-o-----o--Lcx--o  
*            o--Lbx--o-LB---o--|Q1   |       |       
*                           B   \   --       --      
*                               |   -- CCE   -- CCEpkg
*                             E o----'       |           
*                               |            |      
*                              LE            |       
*                               o------------'       
*                               |                   
*                               |                  
*                               Lex            
*                               |  
*                               |                
*                               o EMITTER
*                                                   
*                    
*       CCB   = 0.07pF           LB  = 1.13nH             
*       CCE   = 0.01pF           LE  = 0.85nH           
*       CCBpkg= 0.18pF           Lbx = 0.19nH          
*       CCEpkg= 0.21pF           Lcx = 0.19nH             
*                                Lex = 0.19nH          
*
Q1 1 2 3 NE68119x
LB 200 2 1.13NH
LE 300 3 0.85NH
CCB 1 2 0.07PF
CCE 1 3 0.01PF
CCBpkg 1 200 0.18PF
CCEpkg 1 300 0.21PF
Lbx 200 20 0.19NH
Lcx 1 10 0.19NH
Lex 300 30 0.19NH
.MODEL NE68119x NPN 
+ ( IS=2.7e-16    BF=185           NF=1.02        VAF=15           IKF=0.055
+ ISE=1.77e-11   NE=2.1           BR=1           NR=1             VAR=0  
+ IKR=0          ISC=0            NC=2           RE=0.6           RB=12  
+ RBM=3.7        IRB=1.2e-5       RC=8           CJE=1.20e-12     VJE=0.77 
+ MJE=0.5        CJC=0.8e-12      VJC=0.27       MJC=0.560        XCJC=0  
+ CJS=0          VJS=0.75         MJS=0          FC=0.50          TF=14e-12
+ XTF=3          VTF=25           ITF=0.1        PTF=0            TR=0.3e-9
+ EG=1.11        XTB=0            XTI=3          KF=0             AF=1   )
.ENDS
*******************
*SYM=RFNBJT
*SRC=NE68130;NE68130;BJTs NPN;RF;NEC
.SUBCKT NE68130 10 20 30  
* LAST MODIFIED:    10/95
* BIAS CONDITIONS:  2.5V, 0.3mA to 8V, 10mA
* FREQ RANGE:       0.05GHz to 3.0GHz
*
*                            CCBpkg
*                    .-------||--------.  
*                    |          CCB    |   
*                    |      .--||---.  |       COLLECTOR
* BASE               |      |        | |             
*                    |      |   /----o-o-----o--Lcx--o  
*            o--Lbx--o-LB---o--|Q1   |       |       
*                    |      B   \   --       --      
*                    |          |   -- CCE   -- CCEpkg
*                    --CBEpkg E o----'       |           
*                    --         |            |      
*                    |         LE            |       
*                    `----------o------------'       
*                               |                   
*                               |                  
*                               Lex            
*                               |  
*                               |                
*                               o EMITTER
*                                
*                               
*                                
*                                                   
*                    
*       CCB   = 0.180pF          LB  = 0.004nH             
*       CCE   = 0.180pF          LE  = 0.004nH           
*       CCBpkg= 0.080pF          Lbx = 1.000nH          
*       CCEpkg= 0.080pF          Lcx = 0.132nH             
*       CBEpkg= 0.018pF          Lex = 1.300nH          
*
Q1 1 2 3 NE68130x
LB 200 2 0.004NH
LE 300 3 0.004NH
CCB 1 2 0.18PF
CCE 1 3 0.18PF
CCBpkg 1 200 0.08PF
CCEpkg 1 300 0.08PF
CBEpkg 200 300 0.018PF
Lbx 200 20 1.0NH
Lcx 1 10 0.132NH
Lex 300 30 1.3NH
.MODEL NE68130x NPN 
+ ( IS=3.53e-16   BF=151.9         NF=0.994       VAF=50.0         IKF=0.520 
+ ISE=2.04e-13   NE=2.13          BR=8.91        NR=0.993         VAR=2.09 
+ IKR=0.114      ISC=2.71e-14     NC=1.30        RE=0.422         RB=4.0
+ RBM=2.0        IRB=7.59e-4      RC=4.0         CJE=1.16e-12     VJE=1.03 
+ MJE=0.460      CJC=0.414e-12    VJC=0.695      MJC=0.478        XCJC=1.0 
+ CJS=0.0        VJS=0.750        MJS=0.0        FC=0.50          TF=16.5e-12
+ XTF=0.390      VTF=0.668        ITF=0.060      PTF=60.0         TR=0.0
+ EG=1.11        XTB=0.0          XTI=3.0        KF=0.0           AF=1.0 )
.ENDS
********************
*SYM=RFNBJT
*SRC=NE68133;NE68133;BJTs NPN;RF;NEC
.SUBCKT NE68133 10 20 30  
* LAST MODIFIED:   10/95   
* BIAS CONDITIONS: VCE=2.5V, IC=0.3/1/3mA;  VCE=8V, IC=7/20mA
* FREQ RANGE:      0.1GHz TO 3.0GHz
*
*                                      CCBpkg
*                             ,--------||-----------.                          
*                             |                     |
*                             |        CCB          |
*                             |    .---||---.       |              
* BASE                        |    |        |       |             COLLECTOR    
*                  _____      |    |   /----o-------o---------------o
*  o--------------|_____|-----o-LB-o--|Q1   |       |         
*                    z=63     |    B   \   --       |         
*                    k=4.4    |        |   -- CCE  --         
*                    f=1GHz   --CBE  E o----'      -- CCEpkg  
*                    l=33mil  -- pkg   |            |     
*                             |       LE            |     
*                             `--------o------------'     
*                                      |                 
*                                      -  z=63          
*                                     | | k=4.4        
*                                     | | f=1GHz         
*                                      -  l=33mil       
*                                      |      
*                                      | 
*                                      o EMITTER
*                    
*       CCB = 0.07pF           LB  = 0.95nH
*       CCE = 0.01pF           LE  = 0.95nH
*       CCBpkg = 0.1pF
*       CCEpkg = 0.1pF
*       CBEpkg = 0.001pF
*
Q1 10 2 3 NE68133x
LB 200 2 0.95NH
LE 300 3 0.95NH
CCB 10 2 0.08PF
CCE 10 3 0.08PF
CCBpkg 10 200 0.07PF
CCEpkg 10 300 0.01PF
CBEpkg 200 300 0.001PF
TB 200 0 20 0 Z0=63 TD=5.84E-3
TE 300 0 30 0 Z0=63 TD=5.84E-3
.MODEL NE68133x NPN
+ ( IS=2.70e-16   BF=185.0         NF=1.02        VAF=15.0         IKF=0.055 
+ ISE=1.77e-11   NE=2.10          BR=1.0         NR=1.0           VAR=0.0 
+ IKR=0.0        ISC=0.0          NC=2.0         RE=0.60          RB=12.0
+ RBM=3.70       IRB=1.20e-5      RC=8.0         CJE=1.20e-12     VJE=0.770
+ MJE=0.50       CJC=0.80e-12     VJC=0.270      MJC=0.560        XCJC=0.0 
+ CJS=0.0        VJS=0.750        MJS=0.0        FC=0.50          TF=14.0e-12
+ XTF=3.0        VTF=25.0         ITF=0.10       PTF=60.0         TR=0.30e-9
+ EG=1.11        XTB=0.0          XTI=3.0        KF=0.0           AF=1.0 )
.ENDS
*********************
*SYM=RFNBJT
*SRC=NE68139;NE68139;BJTs NPN;RF;NEC
.SUBCKT NE68139 10 20 30  
* LAST MODIFIED:    6/96
* BIAS CONDITIONS:  Vce=2.5V to 8.0V, Ic=0.3mA to 7mA
* FREQ RANGE:       0.1GHz to 3.0GHz
*
*                        CCBpkg
*               ,--------||-----------.
*               |                     |
*               |        CCB          |
*               |    .---||---.       |
*  BASE         |    |        |       | COLLECTOR
*               |    |   /----o--LC---o---Lcx---o
*  o---Lbx------o-LB-o--|Q1   |       |
*               |    B   \   --       |
*               |        |   -- CCE  --
*        CBEpkg--      E o----'      -- CCEpkg
*              --        |            |
*               |       LE            |
*               '--------o------------'
*                        |
*                        |
*                       Lex
*                        |
*                        o EMITTER
*
*       CCB    = 0.07pF           LB  = 0.88nH
*       CCE    = 0.01pF           LE  = 0.7nH
*                                 LC  = 0.79nH
*       CCBpkg = 0.165pF          Lbx = 0.39nH
*       CCEpkg = 0.165pF          Lcx = 0.39nH
*       CBEpkg = 0.01pF           Lex = 0.2nH
*
Q1 1 2 3 NE68139x
LC 100 1 0.79NH
LB 200 2 0.88NH
LE 300 3 0.7NH
CCB 1 2 0.07PF
CCE 1 3 0.01PF
CCBpkg 100 200 0.165PF
CCEpkg 100 300 0.165PF
CBEpkg 200 300 0.01PF
Lbx 200 20 0.39NH
Lcx 100 10 0.39NH
Lex 300 30 0.2NH
.MODEL NE68139x NPN 
+ ( IS=2.7e-16     BF=185           NF=1.02        VAF=15           IKF=0.055
+ ISE=1.77e-11    NE=2.1           BR=1           NR=1             VAR=0
+ IKR=0           ISC=0            NC=2           RE=0.6           RB=12
+ RBM=3.7         IRB=1.2e-5       RC=8           CJE=1.2e-12      VJE=0.77
+ MJE=0.5         CJC=0.8e-12      VJC=0.27       MJC=0.56         XCJC=0
+ CJS=0           VJS=0.75         MJS=0          FC=0.5           TF=14.0e-12
+ XTF=3           VTF=25           ITF=0.1        PTF=0            TR=0.3e-9
+ EG=1.11         XTB=0            XTI=3          KF=0             AF=1 )
.ENDS
*******************
*SYM=RFNBJT
*SRC=NE68518;NE68518;BJTs NPN;RF;NEC
.SUBCKT NE68518 10 20 30  
* LAST MODIFIED:    4/96
* BIAS CONDITIONS:  Vce=0.5V to 3.0V, Ic=0.5mA to 20mA
* FREQ RANGE:       0.05GHz TO 3.0GHz
*
*                                      CCBpkg
*                             ,--------||-----------.                          
*                             |                     |
*                             |        CCB          |
*                             |    .---||---.       |              
*            BASE             |    |        |       |             COLLECTOR    