* PSpice Model Editor - Version 9.2

*$
.SUBCKT NP84N075EUE 1 2 3
**************************************
*      Model Generated by NEC        *
*         All Rights Reserved        *
*Commercial Use or Resale Restricted *
**************************************
* Model generated on December 1, 2000
* MODEL FORMAT: SPICE2G.6
* POWER MOSFET Model (Version 3.0)
* External Node Designations
* Node 1 -> Drain
* Node 2 -> Gate
* Node 3 -> Source
***************************************
M1  4 5 3 3 NMOS W=9.314656 L=0.9u
DDS   3  1    DDS
CGS   5  3    1.557E-9
RG    2  5    2
RD    1  4    RTEMP 4.22E-3
FGD   1  5 VFGD 1
EVGD  7  0 1 5 1
DDG1  8  7    DD1
DDG2  8  0    DD1
EGD1  9  0 7 8 1
EGD2 10  0 8 0 1
COX  10 11    2.78418E-9
DCRR 11  9    DDG
VFGD 11  0    0
**************************************************************************
.MODEL  NMOS       NMOS  (LEVEL  = 3            TOX    = 670E-10
+ XJ     = 2.5E-6         LD     = 0            WD     = 0
+ TPG    = 1              RS     = 0.6E-3       RD     = 1.4E-3
+ RG     = 0              NSUB   = 2.9E17       IS     = 0
+ UO     = 600            VMAX   = 1.3E4        KAPPA  = 1
+ NFS    = 0.8E12         THETA  = 2.3      
+ ETA    = 1E-4           DELTA  = 0
+ KP     = 80E-6       
+ CGSO   = 0              CGDO   = 0            CGBO   = 0        
+ XQC    = 1.0            AF     = 1            CBD  = 0
+ CBS	 = 0              CJ     = 0            CJSW   = 0
+ FC     = 0.5            JS     = 0            KF     = 0
+ MJ     = 0.5            MJSW   = 0.33         PB     = 0.8
+ RSH    = 0)
*************************************************************************
.MODEL DDS D (CJO=1.48399E-9 VJ=1.620424297 M=0.6374772593
+RS=0.002677582 IS=1.00E-10 TT=24E-9 N=1.133672491 BV=98)
*************************************************************************
.MODEL DDG D (CJO=2.23685E-9 VJ=0.43 M=0.584757243 IS=1E-32 N=50 FC=1E-8)
*************************************************************************
.MODEL DD1 D (CJO=0 N=1)
*************************************************************************
.MODEL RTEMP RES (TC1=0.01087 TC2=3.027E-5)
*************************************************************************
.ENDS NP84N075EUE
*$
.SUBCKT NP84N075DUE 1 2 3
**************************************
*      Model Generated by NEC        *
*         All Rights Reserved        *
*Commercial Use or Resale Restricted *
**************************************
* Model generated on December 1, 2000
* MODEL FORMAT: SPICE2G.6
* POWER MOSFET Model (Version 3.0)
* External Node Designations
* Node 1 -> Drain
* Node 2 -> Gate
* Node 3 -> Source
***************************************
M1  4 5 3 3 NMOS W=9.314656 L=0.9u
DDS   3  1    DDS
CGS   5  3    1.557E-9
RG    2  5    2
RD    1  4    RTEMP 4.22E-3
FGD   1  5 VFGD 1
EVGD  7  0 1 5 1
DDG1  8  7    DD1
DDG2  8  0    DD1
EGD1  9  0 7 8 1
EGD2 10  0 8 0 1
COX  10 11    2.78418E-9
DCRR 11  9    DDG
VFGD 11  0    0
**************************************************************************
.MODEL  NMOS       NMOS  (LEVEL  = 3            TOX    = 670E-10
+ XJ     = 2.5E-6         LD     = 0            WD     = 0
+ TPG    = 1              RS     = 0.6E-3       RD     = 1.4E-3
+ RG     = 0              NSUB   = 2.9E17       IS     = 0
+ UO     = 600            VMAX   = 1.3E4        KAPPA  = 1
+ NFS    = 0.8E12         THETA  = 2.3      
+ ETA    = 1E-4           DELTA  = 0
+ KP     = 80E-6       
+ CGSO   = 0              CGDO   = 0            CGBO   = 0        
+ XQC    = 1.0            AF     = 1            CBD  = 0
+ CBS	 = 0              CJ     = 0            CJSW   = 0
+ FC     = 0.5            JS     = 0            KF     = 0
+ MJ     = 0.5            MJSW   = 0.33         PB     = 0.8
+ RSH    = 0)
*************************************************************************
.MODEL DDS D (CJO=1.48399E-9 VJ=1.620424297 M=0.6374772593
+RS=0.002677582 IS=1.00E-10 TT=24E-9 N=1.133672491 BV=98)
*************************************************************************
.MODEL DDG D (CJO=2.23685E-9 VJ=0.43 M=0.584757243 IS=1E-32 N=50 FC=1E-8)
*************************************************************************
.MODEL DD1 D (CJO=0 N=1)
*************************************************************************
.MODEL RTEMP RES (TC1=0.01087 TC2=3.027E-5)
*************************************************************************
.ENDS NP84N075DUE
*$
.SUBCKT NP88N075EUE 1 2 3
**************************************
*      Model Generated by NEC        *
*         All Rights Reserved        *
*Commercial Use or Resale Restricted *
**************************************
* Model generated on December 1, 2000
* MODEL FORMAT: SPICE2G.6
* POWER MOSFET Model (Version 3.0)
* External Node Designations
* Node 1 -> Drain
* Node 2 -> Gate
* Node 3 -> Source
***************************************
M1  4 5 3 3 NMOS W=16.022394 L=0.9u
DDS   3  1    DDS
CGS   5  3    0.932E-9
RG    2  5    2
RD    1  4    RTEMP 0.8317E-3
FGD   1  5 VFGD 1
EVGD  7  0 1 5 1
DDG1  8  7    DD1
DDG2  8  0    DD1
EGD1  9  0 7 8 1
EGD2 10  0 8 0 1
COX  10 11    4.67405E-9
DCRR 11  9    DDG
VFGD 11  0    0
**************************************************************************
.MODEL  NMOS       NMOS  (LEVEL  = 3            TOX    = 670E-10
+ XJ     = 1.25E-6        LD     = 0            WD     = 0
+ TPG    = 1              RS     = 0.3E-3       RD     = 1.8E-3
+ RG     = 0              NSUB   = 2.4E17       IS     = 0
+ UO     = 600            KAPPA  = 1
+ NFS    = 0.65E12        THETA  = 0.7     
+ PHI    = 0.82
+ KP     = 15E-6     
+ CGSO   = 0              CGDO   = 0            CGBO   = 0        
+ XQC    = 1.0            AF     = 1            CBD    = 0
+ CBS	 = 0              CJ     = 0            CJSW   = 0
+ FC     = 0.5            JS     = 0            KF     = 0
+ MJ     = 0.5            MJSW   = 0.33         PB     = 0.8
+ RSH    = 0)
*************************************************************************
.MODEL DDS D (CJO=3.79303E-9 VJ=0.43 M=0.581721342
+RS=0.001957198 IS=1.00E-10 TT=28.8E-9 N=1.114043576 BV=98)
*************************************************************************
.MODEL DDG D (CJO=3.74151E-9 VJ=0.43 M=0.594446301 IS=1E-32 N=50 FC=1E-8)
*************************************************************************
.MODEL DD1 D (CJO=0 N=1)
*************************************************************************
.MODEL RTEMP RES (TC1=0.02843305 TC2=9.50276E-5)
*************************************************************************
.ENDS NP88N075EUE
*$
.SUBCKT NP88N075DUE 1 2 3
**************************************
*      Model Generated by NEC        *
*         All Rights Reserved        *
*Commercial Use or Resale Restricted *
**************************************
* Model generated on December 1, 2000
* MODEL FORMAT: SPICE2G.6
* POWER MOSFET Model (Version 3.0)
* External Node Designations
* Node 1 -> Drain
* Node 2 -> Gate
* Node 3 -> Source
***************************************
M1  4 5 3 3 NMOS W=16.022394 L=0.9u
DDS   3  1    DDS
CGS   5  3    0.932E-9
RG    2  5    2
RD    1  4    RTEMP 0.8317E-3
FGD   1  5 VFGD 1
EVGD  7  0 1 5 1
DDG1  8  7    DD1
DDG2  8  0    DD1
EGD1  9  0 7 8 1
EGD2 10  0 8 0 1
COX  10 11    4.67405E-9
DCRR 11  9    DDG
VFGD 11  0    0
**************************************************************************
.MODEL  NMOS       NMOS  (LEVEL  = 3            TOX    = 670E-10
+ XJ     = 1.25E-6        LD     = 0            WD     = 0
+ TPG    = 1              RS     = 0.3E-3       RD     = 1.8E-3
+ RG     = 0              NSUB   = 2.4E17       IS     = 0
+ UO     = 600            KAPPA  = 1
+ NFS    = 0.65E12        THETA  = 0.7     
+ PHI    = 0.82
+ KP     = 15E-6     
+ CGSO   = 0              CGDO   = 0            CGBO   = 0        
+ XQC    = 1.0            AF     = 1            CBD    = 0
+ CBS	 = 0              CJ     = 0            CJSW   = 0
+ FC     = 0.5            JS     = 0            KF     = 0
+ MJ     = 0.5            MJSW   = 0.33         PB     = 0.8
+ RSH    = 0)
*************************************************************************
.MODEL DDS D (CJO=3.79303E-9 VJ=0.43 M=0.581721342
+RS=0.001957198 IS=1.00E-10 TT=28.8E-9 N=1.114043576 BV=98)
*************************************************************************
.MODEL DDG D (CJO=3.74151E-9 VJ=0.43 M=0.594446301 IS=1E-32 N=50 FC=1E-8)
*************************************************************************
.MODEL DD1 D (CJO=0 N=1)
*************************************************************************
.MODEL RTEMP RES (TC1=0.02843305 TC2=9.50276E-5)
*************************************************************************
.ENDS NP88N075DUE
*$
.SUBCKT NP22N055IHE 1 2 3
**************************************
*      Model Generated by NEC        *
*         All Rights Reserved        *
*Commercial Use or Resale Restricted *
**************************************
* Model generated on December 1, 2000
* MODEL FORMAT: SPICE2G.6
* POWER MOSFET Model (Version 3.0)
* External Node Designations
* Node 1 -> Drain
* Node 2 -> Gate
* Node 3 -> Source
***************************************
M1  4 5 3 3 NMOS W=1.371186 L=0.8u
DDS   3  1    DDS
CGS   5  3    5.223E-12
RG    2  5    3
RD    1  4    RTEMP 3.112276E-3
FGD   1  5 VFGD 1
EVGD  7  0 1 5 1
DDG1  8  7    DD1
DDG2  8  0    DD1
EGD1  9  0 7 8 1
EGD2 10  0 8 0 1
COX  10 11    3.63627E-10
DCRR 11  9    DDG
VFGD 11  0    0
**************************************************************************
.MODEL  NMOS       NMOS  (LEVEL  = 3           TOX    = 670E-10
+ XJ     = 1.25E-6        LD     = 0           WD     = 0
+ TPG    = 1              RS     = 2.1E-3      RD     = 15.5E-3
+ RG     = 0              NSUB   = 2.05E17     IS     = 0
+ UO     = 600            VMAX   = 2.5E4       KAPPA  = 7.5
+ NFS    = 0.52E12        THETA  = 0.25
+ ETA    = 0              KP     = 28.0E-6          
+ PHI    = 0.82
+ CGSO   = 0              CGDO   = 0           CGBO   = 0        
+ XQC    = 1.0            AF     = 1           CBD    = 0
+ CBS	 = 0              CJ     = 0           CJSW   = 0
+ FC     = 0.5            JS     = 0           KF     = 0
+ MJ     = 0.5            MJSW   = 0.33        PB     = 0.8
+ RSH    = 0)
*************************************************************************
.MODEL DDS D (CJO=4.18234E-10 VJ=0.803659171 M=0.589263417
+RS=0.006720463 IS=1.777E-11 TT=14.5E-9 N=1.125395116 BV=65)
*************************************************************************
.MODEL DDG D (CJO=3.08638E-10 VJ=0.437643944 M=0.446885678 IS=1E-32 N=50 FC=1E-8)
*************************************************************************
.MODEL DD1 D (CJO=0 N=1)
*************************************************************************
.MODEL RTEMP RES (TC1=0.04411909 TC2=1.06247E-4)
*************************************************************************
.ENDS NP22N055IHE
*$
.SUBCKT NP22N055ILE 1 2 3
**************************************
*      Model Generated by NEC        *
*         All Rights Reserved        *
*Commercial Use or Resale Restricted *
**************************************
* Model generated on December 1, 2000
* MODEL FORMAT: SPICE2G.6
* POWER MOSFET Model (Version 3.0)
* External Node Designations
* Node 1 -> Drain
* Node 2 -> Gate
* Node 3 -> Source
***************************************
M1  4 5 3 3 NMOS W=1.371186 L=0.8u
DDS   3  1    DDS
CGS   5  3    6.749E-12
RG    2  5    3
RD    1  4    RTEMP 3.659204E-3
FGD   1  5 VFGD 1
EVGD  7  0 1 5 1
DDG1  8  7    DD1
DDG2  8  0    DD1
EGD1  9  0 7 8 1
EGD2 10  0 8 0 1
COX  10 11    5.1268E-10
DCRR 11  9    DDG
VFGD 11  0    0
**************************************************************************
.MODEL  NMOS       NMOS  (LEVEL  = 3             TOX    = 500E-10
+ XJ     = 1.25E-6        LD     = 0             WD     = 0
+ TPG    = 1              RS     = 2.1E-3        RD     = 16.0E-3
+ RG     = 0              NSUB   = 1.85E17       IS     = 0
+ UO     = 600            KAPPA  = 2
+ NFS    = 0.70E12        THETA  = 0.23
+ ETA    = 0         
+ KP     = 31.0E-6        PHI    = 0.85
+ CGSO   = 0              CGDO   = 0             CGBO   = 0        
+ XQC    = 1.0            AF     = 1             CBD  = 0
+ CBS	 = 0              CJ     = 0             CJSW   = 0
+ FC     = 0.5            JS     = 0             KF     = 0
+ MJ     = 0.5            MJSW   = 0.33          PB     = 0.8
+ RSH    = 0)
*************************************************************************
.MODEL DDS D (CJO=3.46145E-10 VJ=0.635356814 M=0.496325056
+RS=0.006710969 IS=1.000E-10 TT=15.7E-9 N=1.198421717 BV=65)
*************************************************************************
.MODEL DDG D (CJO=3.21027E-10 VJ=0.43 M=0.461128375 IS=1E-32 N=50 FC=1E-8)
*************************************************************************
.MODEL DD1 D (CJO=0 N=1)
*************************************************************************
.MODEL RTEMP RES (TC1=0.038401153 TC2=8.56384E-5)
*************************************************************************
.ENDS NP22N055ILE
*$
.SUBCKT NP32N055IHE 1 2 3
**************************************
*      Model Generated by NEC        *
*         All Rights Reserved        *
*Commercial Use or Resale Restricted *
**************************************
* Model generated on December 1, 2000
* MODEL FORMAT: SPICE2G.6
* POWER MOSFET Model (Version 3.0)
* External Node Designations
* Node 1 -> Drain
* Node 2 -> Gate
* Node 3 -> Source
***************************************
M1  4 5 3 3 NMOS W=2.436048 L=0.8u
DDS   3  1    DDS
CGS   5  3    9.638E-11
RG    2  5    2
RD    1  4    RTEMP 2.813551E-3
FGD   1  5 VFGD 1
EVGD  7  0 1 5 1
DDG1  8  7    DD1
DDG2  8  0    DD1
EGD1  9  0 7 8 1
EGD2 10  0 8 0 1
COX  10 11    7.0169E-10
DCRR 11  9    DDG
VFGD 11  0    0
**************************************************************************
.MODEL  NMOS       NMOS  (LEVEL  = 3            TOX    = 670E-10
+ XJ     = 1.25E-6        LD     = 0            WD     = 0
+ TPG    = 1              RS     = 2.1E-3       RD     = 10.0E-3
+ RG     = 0              NSUB   = 2.17E17      IS     = 0
+ UO     = 600            KAPPA  = 5.8          VMAX   = 1.8E4
+ NFS    = 0.60E12        THETA  = 0.25
+ ETA    = 0            
+ KP     = 36E-6          PHI    = 0.84
+ CGSO   = 0              CGDO   = 0            CGBO   = 0        
+ XQC    = 1.0            AF     = 1            CBD    = 0
+ CBS	 = 0              CJ     = 0            CJSW   = 0
+ FC     = 0.5            JS     = 0            KF     = 0
+ MJ     = 0.5            MJSW   = 0.33         PB     = 0.8
+ RSH    = 0)
*************************************************************************
.MODEL DDS D (CJO=7.27246E-10 VJ=0.890457648 M=0.640937433
+RS=0.006629245 IS=1.000E-10 TT=15.5E-9 N=1.184693056 BV=65)
*************************************************************************
.MODEL DDG D (CJO=5.94837E-10 VJ=0.455624731 M=0.472184737 IS=1E-32 N=50 FC=1E-8)
*************************************************************************
.MODEL DD1 D (CJO=0 N=1)
*************************************************************************
.MODEL RTEMP RES (TC1=0.030044934 TC2=6.75248E-5)
*************************************************************************
.ENDS NP32N055IHE
*$
.SUBCKT NP32N055ILE 1 2 3
**************************************
*      Model Generated by NEC        *
*         All Rights Reserved        *
*Commercial Use or Resale Restricted *
**************************************
* Model generated on December 1, 2000
* MODEL FORMAT: SPICE2G.6
* POWER MOSFET Model (Version 3.0)
* External Node Designations
* Node 1 -> Drain
* Node 2 -> Gate
* Node 3 -> Source
***************************************
M1  4 5 3 3 NMOS W=2.436048 L=0.8u
DDS   3  1    DDS
CGS   5  3    1.212E-10
RG    2  5    2
RD    1  4    RTEMP 2.306749E-3
FGD   1  5 VFGD 1
EVGD  7  0 1 5 1
DDG1  8  7    DD1
DDG2  8  0    DD1
EGD1  9  0 7 8 1
EGD2 10  0 8 0 1
COX  10 11    9.26016E-10
DCRR 11  9    DDG
VFGD 11  0    0
**************************************************************************
.MODEL  NMOS       NMOS  (LEVEL  = 3            TOX    = 500E-10
+ XJ     = 1.25E-6        LD     = 0            WD     = 0
+ TPG    = 1              RS     = 2.1E-3       RD     = 10.0E-3
+ RG     = 0              NSUB   = 2.00E17      IS     = 0
+ UO     = 600            KAPPA  = 2
+ NFS    = 0.65E12        THETA  = 0.35
+ ETA    = 0        
+ KP     = 35.5E-6          PHI    = 0.82
+ CGSO   = 0              CGDO   = 0            CGBO   = 0        
+ XQC    = 1.0            AF     = 1            CBD    = 0
+ CBS	 = 0              CJ     = 0            CJSW   = 0
+ FC     = 0.5            JS     = 0            KF     = 0
+ MJ     = 0.5            MJSW   = 0.33         PB     = 0.8
+ RSH    = 0)
*************************************************************************
.MODEL DDS D (CJO=6.66368E-10 VJ=0.858204828 M=0.597841116
+RS=0.006771316 IS=1.000E-10 TT=15.7E-9 N=1.166274056 BV=65)
*************************************************************************
.MODEL DDG D (CJO=5.71998E-10 VJ=0.43 M=0.471591765 IS=1E-32 N=50 FC=1E-8)
*************************************************************************
.MODEL DD1 D (CJO=0 N=1)
*************************************************************************
.MODEL RTEMP RES (TC1=0.035829002 TC2=8.21597E-5)
*************************************************************************
.ENDS NP32N055ILE
*$
.SUBCKT NP34N055IHE 1 2 3
**************************************
*      Model Generated by NEC        *
*         All Rights Reserved        *
*Commercial Use or Resale Restricted *
**************************************
* Model generated on December 1, 2000
* MODEL FORMAT: SPICE2G.6
* POWER MOSFET Model (Version 3.0)
* External Node Designations
* Node 1 -> Drain
* Node 2 -> Gate
* Node 3 -> Source
***************************************
M1  4 5 3 3 NMOS W=2.953856 L=0.8u
DDS   3  1    DDS
CGS   5  3    3.235E-10
RG    2  5    2
RD    1  4    RTEMP 2.817E-3
FGD   1  5 VFGD 1
EVGD  7  0 1 5 1
DDG1  8  7    DD1
DDG2  8  0    DD1
EGD1  9  0 7 8 1
EGD2 10  0 8 0 1
COX  10 11    9.05721E-10
DCRR 11  9    DDG
VFGD 11  0    0
**************************************************************************
.MODEL  NMOS       NMOS  (LEVEL  = 3            TOX    = 670E-10
+ XJ     = 2.5E-6         LD     = 0            WD     = 0
+ TPG    = 1              RS     = 2.1E-3       RD     = 3.7E-3
+ RG     = 0              NSUB   = 4.0E17       IS     = 0
+ UO     = 600            VMAX   = 8.0E4        KAPPA  = 2
+ NFS    = 0.45E12        THETA  = 0.7      
+ ETA    = 1E-4           PHI    = 0.78
+ KP     = 40E-6        
+ CGSO   = 0              CGDO   = 0            CGBO   = 0        
+ XQC    = 1.0            AF     = 1            CBD    = 0
+ CBS	 = 0              CJ     = 0            CJSW   = 0
+ FC     = 0.5            JS     = 0            KF     = 0
+ MJ     = 0.5            MJSW   = 0.33         PB     = 0.8
+ RSH    = 0)
*************************************************************************
.MODEL DDS D (CJO=8.98289E-10 VJ=0.910351607 M=0.598679571
+RS=0.00533989 IS=1.00E-10 TT=15E-9 N=1.175168225 BV=65)
*************************************************************************
.MODEL DDG D (CJO=7.62075E-10 VJ=0.438937174 M=0.47248524 IS=1E-32 N=50 FC=1E-8)
*************************************************************************
.MODEL DD1 D (CJO=0 N=1)
*************************************************************************
.MODEL RTEMP RES (TC1=0.017226611 TC2=4.67899E-5)
*************************************************************************
.ENDS NP34N055IHE
*$
.SUBCKT NP34N055ILE 1 2 3
**************************************
*      Model Generated by NEC        *
*         All Rights Reserved        *
*Commercial Use or Resale Restricted *
**************************************
* Model generated on December 1, 2000
* MODEL FORMAT: SPICE2G.6
* POWER MOSFET Model (Version 3.0)
* External Node Designations
* Node 1 -> Drain
* Node 2 -> Gate
* Node 3 -> Source
***************************************
M1  4 5 3 3 NMOS W=2.953856 L=0.8u
DDS   3  1    DDS
CGS   5  3    4.150E-10
RG    2  5    2
RD    1  4    RTEMP 4.36E-3
FGD   1  5 VFGD 1
EVGD  7  0 1 5 1
DDG1  8  7    DD1
DDG2  8  0    DD1
EGD1  9  0 7 8 1
EGD2 10  0 8 0 1
COX  10 11    1.41378E-9
DCRR 11  9    DDG
VFGD 11  0    0
**************************************************************************
.MODEL  NMOS       NMOS  (LEVEL  = 3            TOX    = 500E-10
+ XJ     = 2.5E-6         LD     = 0            WD     = 0
+ TPG    = 1              RS     = 2.1E-3       RD     = 6.5E-3
+ RG     = 0              NSUB   = 2.90E17      IS     = 0
+ UO     = 600            KAPPA  = 2
+ NFS    = 0.55E12        THETA  = 0      
+ ETA    = 1E-4           PHI    = 0.80        
+ KP     = 35E-6          
+ CGSO   = 0              CGDO   = 0            CGBO   = 0        
+ XQC    = 1.0            AF     = 1            CBD    = 0
+ CBS	 = 0              CJ     = 0            CJSW   = 0
+ FC     = 0.5            JS     = 0            KF     = 0
+ MJ     = 0.5            MJSW   = 0.33         PB     = 0.8
+ RSH    = 0)
*************************************************************************
.MODEL DDS D (CJO=1.07828E-9 VJ=0.930404086 M=0.707126474
+RS=0.005727396 IS=1.00E-10 TT=15.7E-9 N=1.15616044 BV=65)
*************************************************************************
.MODEL DDG D (CJO=8.75316E-10 VJ=0.43 M=0.502314937 IS=1E-32 N=50 FC=1E-8)
*************************************************************************
.MODEL DD1 D (CJO=0 N=1)
*************************************************************************
.MODEL RTEMP RES (TC1=0.0162639 TC2=3.40635E-5)
*************************************************************************
.ENDS NP34N055ILE
*$
.SUBCKT NP36N055IHE 1 2 3
**************************************
*      Model Generated by NEC        *
*         All Rights Reserved        *
*Commercial Use or Resale Restricted *
**************************************
* Model generated on December 1, 2000
* MODEL FORMAT: SPICE2G.6
* POWER MOSFET Model (Version 3.0)
* External Node Designations
* Node 1 -> Drain
* Node 2 -> Gate
* Node 3 -> Source
***************************************
M1  4 5 3 3 NMOS W=4.645856 L=0.8u
DDS   3  1    DDS
CGS   5  3    4.449E-10
RG    2  5    2
RD    1  4    RTEMP 1.768E-3
FGD   1  5 VFGD 1
EVGD  7  0 1 5 1
DDG1  8  7    DD1
DDG2  8  0    DD1
EGD1  9  0 7 8 1
EGD2 10  0 8 0 1
COX  10 11    1.34215E-9
DCRR 11  9    DDG
VFGD 11  0    0
**************************************************************************
.MODEL  NMOS       NMOS  (LEVEL  = 3             TOX    = 670E-10
+ XJ     = 2.5E-6         LD     = 0             WD     = 0
+ TPG    = 1              RS     = 2.1E-3        RD     = 3.2E-3
+ RG     = 0              NSUB   = 3.05E17       IS     = 0
+ UO     = 600            VMAX   = 3.0E5         KAPPA  = 2
+ NFS    = 0.5E12         THETA  = 0.5
+ ETA    = 0             
+ KP     = 32E-6          PHI    = 0.8
+ CGSO   = 0              CGDO   = 0             CGBO   = 0        
+ XQC    = 1.0            AF     = 1             CBD    = 0
+ CBS	 = 0              CJ     = 0             CJSW   = 0
+ FC     = 0.5            JS     = 0             KF     = 0
+ MJ     = 0.5            MJSW   = 0.33          PB     = 0.8
+ RSH    = 0)
*************************************************************************
.MODEL DDS D (CJO=1.32923E-9 VJ=0.969956307 M=0.601117218
+RS=0.005596067 IS=1.00E-10 TT=16E-9 N=1.154108746 BV=65)
*************************************************************************
.MODEL DDG D (CJO=1.12672E-9 VJ=0.43 M=0.46723736 IS=1E-32 N=50 FC=1E-8)
*************************************************************************
.MODEL DD1 D (CJO=0 N=1)
*************************************************************************
.MODEL RTEMP RES (TC1=0.0223936 TC2=3.67208E-5)
*************************************************************************
.ENDS NP36N055IHE
*$
.SUBCKT NP36N055ILE 1 2 3
**************************************
*      Model Generated by NEC        *
*         All Rights Reserved        *
*Commercial Use or Resale Restricted *
**************************************
* Model generated on December 1, 2000
* MODEL FORMAT: SPICE2G.6
* POWER MOSFET Model (Version 3.0)
* External Node Designations
* Node 1 -> Drain
* Node 2 -> Gate
* Node 3 -> Source
***************************************
M1  4 5 3 3 NMOS W=4.645856 L=0.8u
DDS   3  1    DDS
CGS   5  3    4.099E-10
RG    2  5    2
RD    1  4    RTEMP 2.66308E-3
FGD   1  5 VFGD 1
EVGD  7  0 1 5 1
DDG1  8  7    DD1
DDG2  8  0    DD1
EGD1  9  0 7 8 1
EGD2 10  0 8 0 1
COX  10 11    1.80119E-9
DCRR 11  9    DDG
VFGD 11  0    0
**************************************************************************
.MODEL  NMOS       NMOS  (LEVEL  = 3             TOX    = 500E-10
+ XJ     = 2.5E-6         LD     = 0             WD     = 0
+ TPG    = 1              RS     = 2.1E-3        RD     = 4.5E-3
+ RG     = 0              NSUB   = 3.1E17        IS     = 0
+ UO     = 600            KAPPA  = 2
+ NFS    = 0.5E12         THETA  = 0
+ ETA    = 0           
+ KP     = 32E-6          PHI    = 0.78
+ CGSO   = 0              CGDO   = 0             CGBO   = 0        
+ XQC    = 1.0            AF     = 1             CBD  = 0
+ CBS	 = 0              CJ     = 0             CJSW   = 0
+ FC     = 0.5            JS     = 0             KF     = 0
+ MJ     = 0.5            MJSW   = 0.33          PB     = 0.8
+ RSH    = 0)
*************************************************************************
.MODEL DDS D (CJO=1.52853E-9 VJ=0.981335006 M=0.653206015
+RS=0.005247961 IS=1.00E-10 TT=15.5E-9 N=1.126203376 BV=65)
*************************************************************************
.MODEL DDG D (CJO=1.12676E-9 VJ=0.43 M=0.488173735 IS=1E-32 N=50 FC=1E-8)
*************************************************************************
.MODEL DD1 D (CJO=0 N=1)
*************************************************************************
.MODEL RTEMP RES (TC1=0.021455 TC2=4.94565E-5)
*************************************************************************
.ENDS NP36N055ILE
*$
.SUBCKT NP88N055DHE 1 2 3
**************************************
*      Model Generated by NEC        *
*         All Rights Reserved        *
*Commercial Use or Resale Restricted *
**************************************
* Model generated on December 1, 2000
* MODEL FORMAT: SPICE2G.6
* POWER MOSFET Model (Version 3.0)
* External Node Designations
* Node 1 -> Drain
* Node 2 -> Gate
* Node 3 -> Source
***************************************
M1  4 5 3 3 NMOS W=14.242 L=0.7u
DDS   3  1    DDS
CGS   5  3    2.713E-9
RG    2  5    2.9
RD    1  4    RTEMP 0.1009E-3
FGD   1  5 VFGD 1
EVGD  7  0 1 5 1
DDG1  8  7    DD1
DDG2  8  0    DD1
EGD1  9  0 7 8 1
EGD2 10  0 8 0 1
COX  10 11    3.51424E-9
DCRR 11  9    DDG
VFGD 11  0    0
**************************************************************************
.MODEL  NMOS       NMOS  (LEVEL  = 3            TOX    = 670E-10
+ XJ     = 0.4E-6         LD     = 0            WD     = 0
+ TPG    = 1              RS     = 0.3E-3       RD     = 3.25E-3
+ RG     = 0              NSUB   = 22E16        IS     = 0
+ UO     = 600            VMAX   = 7E3          KAPPA  = 1
+ NFS    = 5E11           NSS    = 1E4          THETA  = 1        
+ ETA    = 0              DELTA  = 0
+ KP     = 10E-5                          
+ CGSO   = 0              CGDO   = 0            CGBO   = 0         
+ XQC    = 1.0            AF     = 1            CBD    = 0
+ CBS	 = 0              CJ     = 0            CJSW   = 0
+ FC     = 0.5            JS     = 0            KF     = 0
+ MJ     = 0.5            MJSW   = 0.33         PB     = 0.8
+ RSH    = 0)             
*************************************************************************
.MODEL DDS D (CJO=3.97156E-9 VJ=1.163134093 M=0.600736352
+RS=0.001876932 IS=1.000E-10 TT=19.5E-9 N=1.107413655 BV=65)
*************************************************************************
.MODEL DDG D (CJO=2.94614E-9 VJ=0.43 M=0.470902034 IS=1E-32 N=50 FC=1E-8)
*************************************************************************
.MODEL DD1 D (CJO=0 N=1)
*************************************************************************
.MODEL RTEMP RES (TC1=0.19088 TC2=2.64e-4)
*************************************************************************
.ENDS NP88N055DHE
*$
.SUBCKT NP88N055CHE 1 2 3
**************************************
*      Model Generated by NEC        *
*         All Rights Reserved        *
*Commercial Use or Resale Restricted *
**************************************
* Model generated on December 1, 2000
* MODEL FORMAT: SPICE2G.6
* POWER MOSFET Model (Version 3.0)
* External Node Designations
* Node 1 -> Drain
* Node 2 -> Gate
* Node 3 -> Source
***************************************
M1  4 5 3 3 NMOS W=14.242 L=0.7u
DDS   3  1    DDS
CGS   5  3    2.713E-9
RG    2  5    2.9
RD    1  4    RTEMP 0.1009E-3
FGD   1  5 VFGD 1
EVGD  7  0 1 5 1
DDG1  8  7    DD1
DDG2  8  0    DD1
EGD1  9  0 7 8 1
EGD2 10  0 8 0 1
COX  10 11    3.51424E-9
DCRR 11  9    DDG
VFGD 11  0    0
**************************************************************************
.MODEL  NMOS       NMOS  (LEVEL  = 3            TOX    = 670E-10
+ XJ     = 0.4E-6         LD     = 0            WD     = 0
+ TPG    = 1              RS     = 0.3E-3       RD     = 3.25E-3
+ RG     = 0              NSUB   = 22E16        IS     = 0
+ UO     = 600            VMAX   = 7E3          KAPPA  = 1
+ NFS    = 5E11           NSS    = 1E4          THETA  = 1        
+ ETA    = 0              DELTA  = 0
+ KP     = 10E-5                          
+ CGSO   = 0              CGDO   = 0            CGBO   = 0         
+ XQC    = 1.0            AF     = 1            CBD    = 0
+ CBS	 = 0              CJ     = 0            CJSW   = 0
+ FC     = 0.5            JS     = 0            KF     = 0
+ MJ     = 0.5            MJSW   = 0.33         PB     = 0.8