*****
* NEW1.LIB  
*****
*** 
.MODEL part0 PNP (IS=10F BF=200 VAF=100 IKF=1 ISE=1P NE=2 BR=100M IKR=1 ISC=1P 
+ RE=500M RC=500M CJE=2P MJE=500M CJC=5P MJC=500M TF=1N XTF=500M VTF=10 ITF=10M 
+ TR=10N EG=1.11)
*** 
.MODEL part1 NPN (IS=10F BF=200 VAF=100 IKF=1 ISE=1P NE=2 BR=100M IKR=1 ISC=1P 
+ RE=500M RC=500M CJE=2P MJE=500M CJC=5P MJC=500M TF=1N XTF=500M VTF=10 ITF=10M 
+ TR=10N EG=1.11)
