************
*SRC=L12103;L12103;Inductors;Newport;
*SYM=IND
.SUBCKT L12103 1 2
LO  1 4 1.00E-05
V1  4 3
B1  1 4 I=I(V1)^3 * -6.25E-08/(3*1.00E-5)
RDC 3 2    0.056
CP  1 2  7.73E-12
RP  1 2  7.39E+04
.ENDS
**********
*SRC=L12104;L12104;Inductors;Newport;
*SYM=IND
.SUBCKT L12104 1 2
LO  1 4 1.00E-04 
V1  4 3
B1  1 4 I=I(V1)^3 * -2.50E-06/(3*1.00E-04)
RDC 3 2    0.220
CP  1 2  1.85E-11
RP  1 2  1.16E+05
.ENDS
**********
*SRC=L12105;L12105;Inductors;Newport;
*SYM=IND
.SUBCKT L12105 1 2
LO  1 4 1.00E-03 
V1  4 3
B1  1 4 I=I(V1)^3 * -1.00E-04/(3*1.00E-03)
RDC 3 2    0.770
CP  1 2  3.96E-11
RP  1 2  2.76E+05
.ENDS
**********
*SRC=L12124;L12124;Inductors;Newport;
*SYM=IND
.SUBCKT L12124 1 2
LO  1 4 1.20E-04 
V1  4 3
B1  1 4 I=I(V1)^3 * -3.00E-06/(3*1.20E-04)
RDC 3 2    0.240
CP  1 2  2.06E-11
RP  1 2  1.21E+05
.ENDS
**********
*SRC=L12125;L12125;Inductors;Newport;
*SYM=IND
.SUBCKT L12125 1 2
LO  1 4 1.20E-03 
V1  4 3
B1  1 4 I=I(V1)^3 * -1.20E-04/(3*1.20E-03)
RDC 3 2    0.880
CP  1 2  4.31E-11
RP  1 2  2.64E+05
.ENDS
**********
*SRC=L12153;L12153;Inductors;Newport;
*SYM=IND
.SUBCKT L12153 1 2
LO  1 4 1.50E-05 
V1  4 3
B1  1 4 I=I(V1)^3 * -1.67E-07/(3*1.50E-05)
RDC 3 2    0.068
CP  1 2  7.51E-12
RP  1 2  7.78E+04
.ENDS
**********
*SRC=L12154;L12154;Inductors;Newport;
*SYM=IND
.SUBCKT L12154 1 2
LO  1 4 1.50E-04 
V1  4 3
B1  1 4 I=I(V1)^3 * -3.75E-06/(3*1.50E-04)
RDC 3 2    0.260
CP  1 2  2.01E-11
RP  1 2  1.37E+05
.ENDS
**********
*SRC=L12155;L12155;Inductors;Newport;
*SYM=IND
.SUBCKT L12155 1 2
LO  1 4 1.50E-03 
V1  4 3
B1  1 4 I=I(V1)^3 * -1.50E-04/(3*1.50E-03)
RDC 3 2    0.990
CP  1 2  4.69E-11
RP  1 2  3.39E+05
.ENDS
**********
*SRC=L12184;L12184;Inductors;Newport;
*SYM=IND
.SUBCKT L12184 1 2
LO  1 4 1.80E-04 
V1  4 3
B1  1 4 I=I(V1)^3 * -5.88E-06/(3*1.80E-04)
RDC 3 2    0.310
CP  1 2  2.25E-11
RP  1 2  1.41E+05
.ENDS
**********
*SRC=L12223;L12223;Inductors;Newport;
*SYM=IND
.SUBCKT L12223 1 2
LO  1 4 2.20E-05 
V1  4 3
B1  1 4 I=I(V1)^3 * -2.44E-07/(3*2.20E-05)
RDC 3 2    0.087
CP  1 2  9.69E-12
RP  1 2  7.53E+04
.ENDS
**********
*SRC=L12224;L12224;Inductors;Newport;
*SYM=IND
.SUBCKT L12224 1 2
LO  1 4 2.20E-04 
V1  4 3
B1  1 4 I=I(V1)^3 * -9.78E-06/(3*2.20E-04)
RDC 3 2    0.350
CP  1 2  4.10E-12
RP  1 2  3.30E+05
.ENDS
**********
*SRC=L12274;L12274;Inductors;Newport;
*SYM=IND
.SUBCKT L12274 1 2
LO  1 4 2.70E-04 
V1  4 3
B1  1 4 I=I(V1)^3 * -1.73E-05/(3*2.70E-04)
RDC 3 2    0.380
CP  1 2  2.90E-11
RP  1 2  1.37E+05
.ENDS
**********
*SRC=L12303;L12303;Inductors;Newport;
*SYM=IND
.SUBCKT L12303 1 2
LO  1 4 3.00E-05 
V1  4 3
B1  1 4 I=I(V1)^3 * -3.33E-07/(3*3.00E-05)
RDC 3 2    0.100
CP  1 2  1.39E-11
RP  1 2  6.62E+04
.ENDS
**********
*SRC=L12304;L12304;Inductors;Newport;
*SYM=IND
.SUBCKT L12304 1 2
LO  1 4 3.00E-04 
V1  4 3
B1  1 4 I=I(V1)^3 * -3.00E-05/(3*3.00E-04)
RDC 3 2    0.400
CP  1 2  5.00E-11
RP  1 2  1.10E+05
.ENDS
**********
*SRC=L12394;L12394;Inductors;Newport;
*SYM=IND
.SUBCKT L12394 1 2
LO  1 4 3.90E-04 
V1  4 3
B1  1 4 I=I(V1)^3 * -3.90E-05/(3*3.90E-04)
RDC 3 2    0.450
CP  1 2  4.51E-11
RP  1 2  1.47E+05
.ENDS
**********
*SRC=L12472;L12472;Inductors;Newport;
*SYM=IND
.SUBCKT L12472 1 2
LO  1 4 4.70E-06 
V1  4 3
B1  1 4 I=I(V1)^3 * -2.32E-08/(3*4.70E-06)
RDC 3 2    0.037
CP  1 2  5.91E-12
RP  1 2  5.80E+04
.ENDS
**********
*SRC=L12473;L12473;Inductors;Newport;
*SYM=IND
.SUBCKT L12473 1 2
LO  1 4 4.70E-05 
V1  4 3
B1  1 4 I=I(V1)^3 * -1.18E-06/(3*4.70E-05)
RDC 3 2    0.140
CP  1 2  2.16E-11
RP  1 2  8.12E+04
.ENDS
**********
*SRC=L12474;L12474;Inductors;Newport;
*SYM=IND
.SUBCKT L12474 1 2
LO  1 4 4.70E-04 
V1  4 3
B1  1 4 I=I(V1)^3 * -4.70E-05/(3*4.70E-04)
RDC 3 2    0.490
CP  1 2  5.39E-11
RP  1 2  1.48E+05
.ENDS
**********
*SRC=L12683;L12683;Inductors;Newport;
*SYM=IND
.SUBCKT L12683 1 2
LO  1 4 6.80E-05 
V1  4 3
B1  1 4 I=I(V1)^3 * -1.70E-06/(3*6.80E-05)
RDC 3 2    0.170
CP  1 2  1.55E-11
RP  1 2  1.05E+05
.ENDS
**********
*SRC=L12684;L12684;Inductors;Newport;
*SYM=IND
.SUBCKT L12684 1 2
LO  1 4 6.80E-04 
V1  4 3
B1  1 4 I=I(V1)^3 * -6.80E-05/(3*6.80E-04)
RDC 3 2    0.630
CP  1 2  4.60E-11
RP  1 2  1.92E+05
.ENDS
**********
*SRC=L12882;L12882;Inductors;Newport;
*SYM=IND
.SUBCKT L12882 1 2
LO  1 4 8.80E-06 
V1  4 3
B1  1 4 I=I(V1)^3 * -4.35E-08/(3*8.80E-06)
RDC 3 2    0.050
CP  1 2  7.34E-12
RP  1 2  7.12E+04
.ENDS
**********
*SRC=L12883;L12883;Inductors;Newport;
*SYM=IND
.SUBCKT L12883 1 2
LO  1 4 8.80E-05 
V1  4 3
B1  1 4 I=I(V1)^3 * -2.20E-06/(3*8.80E-05)
RDC 3 2    0.200
CP  1 2  1.25E-11
RP  1 2  1.33E+05
.ENDS
**********
*SRC=L12H103;L12H103;Inductors;Newport;
*SYM=IND
.SUBCKT L12H103 1 2
LO  1 4 1.00E-05 
V1  4 3
B1  1 4 I=I(V1)^3 * -1.78E-08/(3*1.00E-05)
RDC 3 2    0.014
CP  1 2  7.32E-12
RP  1 2  4.09E+04
.ENDS
**********
*SRC=L12H104;L12H104;Inductors;Newport;
*SYM=IND
.SUBCKT L12H104 1 2
LO  1 4 1.00E-04 
V1  4 3
B1  1 4 I=I(V1)^3 * -6.25E-07/(3*1.00E-04)
RDC 3 2    0.060
CP  1 2  2.81E-11
RP  1 2  1.88E+04
.ENDS
**********
*SRC=L12H105;L12H105;Inductors;Newport;
*SYM=IND
.SUBCKT L12H105 1 2
LO  1 4 1.00E-03 
V1  4 3
B1  1 4 I=I(V1)^3 * -3.46E-05/(3*1.00E-03)
RDC 3 2    0.470
CP  1 2  2.09E-11
RP  1 2  2.83E+05
.ENDS
**********
*SRC=L12H124;L12H124;Inductors;Newport;
*SYM=IND
.SUBCKT L12H124 1 2
LO  1 4 1.20E-04 
V1  4 3
B1  1 4 I=I(V1)^3 * -7.69E-07/(3*1.20E-04)
RDC 3 2    0.068
CP  1 2  2.69E-11
RP  1 2  2.11E+04
.ENDS
**********
*SRC=L12H125;L12H125;Inductors;Newport;
*SYM=IND
.SUBCKT L12H125 1 2
LO  1 4 1.20E-03 
V1  4 3
B1  1 4 I=I(V1)^3 * -4.99E-05/(3*1.20E-03)
RDC 3 2    0.600
CP  1 2  2.61E-11
RP  1 2  2.71E+05
.ENDS
**********
*SRC=L12H153;L12H153;Inductors;Newport;
*SYM=IND
.SUBCKT L12H153 1 2
LO  1 4 1.50E-05 
V1  4 3
B1  1 4 I=I(V1)^3 * -3.06E-08/(3*1.50E-05)
RDC 3 2    0.020
CP  1 2  7.61E-12
RP  1 2  2.81E+04
.ENDS
**********
*SRC=L12H154;L12H154;Inductors;Newport;
*SYM=IND
.SUBCKT L12H154 1 2
LO  1 4 1.50E-04 
V1  4 3
B1  1 4 I=I(V1)^3 * -9.86E-07/(3*1.50E-04)
RDC 3 2    0.075
CP  1 2  2.32E-11
RP  1 2  2.54E+04
.ENDS
**********
*SRC=L12H155;L12H155;Inductors;Newport;
*SYM=IND
.SUBCKT L12H155 1 2
LO  1 4 1.50E-03 
V1  4 3
B1  1 4 I=I(V1)^3 * -7.65E-05/(3*1.50E-03)
RDC 3 2    0.730
CP  1 2  2.64E-11
RP  1 2  3.54E+05
.ENDS
**********
*SRC=L12H184;L12H184;Inductors;Newport;
*SYM=IND
.SUBCKT L12H184 1 2
LO  1 4 1.80E-04 
V1  4 3
B1  1 4 I=I(V1)^3 * -1.31E-06/(3*1.80E-04)
RDC 3 2    0.093
CP  1 2  2.25E-11
RP  1 2  2.83E+04
.ENDS
**********
*SRC=L12H223;L12H223;Inductors;Newport;
*SYM=IND
.SUBCKT L12H223 1 2
LO  1 4 2.20E-05 
V1  4 3
B1  1 4 I=I(V1)^3 * -5.21E-08/(3*2.20E-05)
RDC 3 2    0.025
CP  1 2  6.81E-12
RP  1 2  3.59E+04
.ENDS
**********
*SRC=L12H224;L12H224;Inductors;Newport;
*SYM=IND
.SUBCKT L12H224 1 2
LO  1 4 2.20E-04 
V1  4 3
B1  1 4 I=I(V1)^3 * -1.80E-06/(3*2.20E-04)
RDC 3 2    0.110
CP  1 2  2.00E-11
RP  1 2  2.85E+04
.ENDS
**********
*SRC=L12H274;L12H274;Inductors;Newport;
*SYM=IND
.SUBCKT L12H274 1 2
LO  1 4 2.70E-04 
V1  4 3
B1  1 4 I=I(V1)^3 * -2.27E-06/(3*2.70E-04)
RDC 3 2    0.120
CP  1 2  1.77E-11
RP  1 2  3.24E+04
.ENDS
**********
*SRC=L12H303;L12H303;Inductors;Newport;
*SYM=IND
.SUBCKT L12H303 1 2
LO  1 4 3.00E-05 
V1  4 3
B1  1 4 I=I(V1)^3 * -8.33E-08/(3*3.00E-05)
RDC 3 2    0.029
CP  1 2  1.23E-11
RP  1 2  2.35E+04
.ENDS
**********
*SRC=L12H304;L12H304;Inductors;Newport;
*SYM=IND
.SUBCKT L12H304 1 2
LO  1 4 3.00E-04 
V1  4 3
B1  1 4 I=I(V1)^3 * -2.60E-06/(3*3.00E-04)
RDC 3 2    0.130
CP  1 2  1.74E-11
RP  1 2  3.23E+04
.ENDS
**********
*SRC=L12H394;L12H394;Inductors;Newport;
*SYM=IND
.SUBCKT L12H394 1 2
LO  1 4 3.90E-04 
V1  4 3
B1  1 4 I=I(V1)^3 * -3.93E-06/(3*3.90E-04)
RDC 3 2    0.150
CP  1 2  1.34E-11
RP  1 2  4.20E+04
.ENDS
**********
*SRC=L12H472;L12H472;Inductors;Newport;
*SYM=IND
.SUBCKT L12H472 1 2
LO  1 4 4.70E-06 
V1  4 3
B1  1 4 I=I(V1)^3 * -4.70E-09/(3*4.70E-06)
RDC 3 2    0.009
CP  1 2  1.05E-11
RP  1 2  4.36E+04
.ENDS
**********
*SRC=L12H473;L12H473;Inductors;Newport;
*SYM=IND
.SUBCKT L12H473 1 2
LO  1 4 4.70E-05 
V1  4 3
B1  1 4 I=I(V1)^3 * -1.55E-07/(3*4.70E-05)
RDC 3 2    0.038
CP  1 2  3.37E-11
RP  1 2  1.18E+04
.ENDS
**********
*SRC=L12H474;L12H474;Inductors;Newport;
*SYM=IND
.SUBCKT L12H474 1 2
LO  1 4 4.70E-04 
V1  4 3
B1  1 4 I=I(V1)^3 * -5.59E-06/(3*4.70E-04)
RDC 3 2    0.170
CP  1 2  1.22E-11
RP  1 2  4.78E+04
.ENDS
**********
*SRC=L12H683;L12H683;Inductors;Newport;
*SYM=IND
.SUBCKT L12H683 1 2
LO  1 4 6.80E-05 
V1  4 3
B1  1 4 I=I(V1)^3 * -2.89E-07/(3*6.80E-05)
RDC 3 2    0.046
CP  1 2  2.72E-11
RP  1 2  1.58E+04
.ENDS
**********
*SRC=L12H684;L12H684;Inductors;Newport;
*SYM=IND
.SUBCKT L12H684 1 2
LO  1 4 6.80E-04 
V1  4 3
B1  1 4 I=I(V1)^3 * -1.29E-05/(3*6.80E-04)
RDC 3 2    0.320
CP  1 2  1.29E-11
RP  1 2  5.81E+04
.ENDS
**********
*SRC=L12H882;L12H882;Inductors;Newport;
*SYM=IND
.SUBCKT L12H882 1 2
LO  1 4 8.80E-06 
V1  4 3
B1  1 4 I=I(V1)^3 * -1.37E-08/(3*8.80E-06)
RDC 3 2    0.013
CP  1 2  6.78E-12
RP  1 2  4.56E+04
.ENDS
**********
*SRC=L12H883;L12H883;Inductors;Newport;
*SYM=IND
.SUBCKT L12H883 1 2
LO  1 4 8.80E-05 
V1  4 3
B1  1 4 I=I(V1)^3 * -4.99E-07/(3*8.80E-05)
RDC 3 2    0.055
CP  1 2  2.35E-11
RP  1 2  1.94E+04
.ENDS
**********
*SRC=L14103;L14103;Inductors;Newport;
*SYM=IND
.SUBCKT L14103 1 2
LO  1 4 1.00E-05 
V1  4 3
B1  1 4 I=I(V1)^3 * -5.92E-09/(3*1.00E-05)
RDC 3 2    0.008
CP  1 2  5.91E-12
RP  1 2  7.02E+04
.ENDS
**********
*SRC=L14104;L14104;Inductors;Newport;
*SYM=IND
.SUBCKT L14104 1 2
LO  1 4 1.00E-04 
V1  4 3
B1  1 4 I=I(V1)^3 * -1.64E-07/(3*1.00E-04)
RDC 3 2    0.033
CP  1 2  2.33E-11
RP  1 2  7.05E+04
.ENDS
**********
*SRC=L14105;L14105;Inductors;Newport;
*SYM=IND
.SUBCKT L14105 1 2
.ENDS
LO  1 4 1.00E-03 
V1  4 3
B1  1 4 I=I(V1)^3 * -6.25E-06/(3*1.00E-03)
RDC 3 2    0.173
CP  1 2  3.96E-11
RP  1 2  2.46E+05
.ENDS
**********
*SRC=L14106;L14106;Inductors;Newport;
*SYM=IND
.SUBCKT L14106 1 2
LO  1 4 1.00E-02 
V1  4 3
B1  1 4 I=I(V1)^3 * -8.26E-04/(3*1.00E-02)
RDC 3 2    1.530
CP  1 2  2.53E-10
RP  1 2  1.88E+05
.ENDS
**********
*SRC=L14153;L14153;Inductors;Newport;
*SYM=IND
.SUBCKT L14153 1 2
LO  1 4 1.50E-05 
V1  4 3
B1  1 4 I=I(V1)^3 * -1.04E-08/(3*1.50E-05)
RDC 3 2    0.009
CP  1 2  1.05E-11
RP  1 2  5.03E+04
.ENDS
**********
*SRC=L14154;L14154;Inductors;Newport;
*SYM=IND
.SUBCKT L14154 1 2
LO  1 4 1.50E-04 
V1  4 3
B1  1 4 I=I(V1)^3 * -2.81E-07/(3*1.50E-04)
RDC 3 2    0.040
CP  1 2  1.65E-11
RP  1 2  1.27E+05
.ENDS
**********
*SRC=L14155;L14155;Inductors;Newport;
*SYM=IND
.SUBCKT L14155 1 2
LO  1 4 1.50E-03 
V1  4 3
B1  1 4 I=I(V1)^3 * -1.38E-05/(3*1.50E-03)
RDC 3 2    0.216
CP  1 2  3.45E-11
RP  1 2  1.45E+05
.ENDS
**********
*SRC=L14156;L14156;Inductors;Newport;
*SYM=IND
.SUBCKT L14156 1 2
LO  1 4 1.50E-02 
V1  4 3
B1  1 4 I=I(V1)^3 * -1.50E-03/(3*1.50E-02)
RDC 3 2    2.400
CP  1 2  1.69E-10
RP  1 2  5.18E+05
.ENDS
**********
*SRC=L14223;L14223;Inductors;Newport;
*SYM=IND
.SUBCKT L14223 1 2
LO  1 4 2.20E-05 
V1  4 3
B1  1 4 I=I(V1)^3 * -1.82E-08/(3*2.20E-05)
RDC 3 2    0.012
CP  1 2  1.33E-11
RP  1 2  8.23E+04
.ENDS
**********
*SRC=L14224;L14224;Inductors;Newport;
*SYM=IND
.SUBCKT L14224 1 2
LO  1 4 2.20E-04 
V1  4 3
B1  1 4 I=I(V1)^3 * -5.21E-07/(3*2.20E-04)
RDC 3 2    0.051
CP  1 2  3.55E-11
RP  1 2  1.17E+05
.ENDS
**********
*SRC=L14225;L14225;Inductors;Newport;
*SYM=IND
.SUBCKT L14225 1 2
LO  1 4 2.20E-03 
V1  4 3
B1  1 4 I=I(V1)^3 * -3.02E-05/(3*2.20E-03)
RDC 3 2    0.349
CP  1 2  3.20E-11
RP  1 2  1.74E+05
.ENDS
**********
*SRC=L14226;L14226;Inductors;Newport;
*SYM=IND
.SUBCKT L14226 1 2
LO  1 4 2.20E-02 
V1  4 3
B1  1 4 I=I(V1)^3 * -3.44E-03/(3*2.20E-02)
RDC 3 2    3.540
CP  1 2  1.15E-10
RP  1 2  2.90E+05
.ENDS
**********
*SRC=L14304;L14304;Inductors;Newport;
*SYM=IND
.SUBCKT L14304 1 2
LO  1 4 3.00E-04 
V1  4 3
B1  1 4 I=I(V1)^3 * -6.12E-07/(3*3.00E-04)
RDC 3 2    0.054
CP  1 2  4.31E-11
RP  1 2  1.13E+05
.ENDS
**********
*SRC=L14333;L14333;Inductors;Newport;
*SYM=IND
.SUBCKT L14333 1 2
LO  1 4 3.30E-05 
V1  4 3
B1  1 4 I=I(V1)^3 * -3.82E-08/(3*3.30E-05)
RDC 3 2    0.016
CP  1 2  9.27E-12
RP  1 2  5.09E+04
.ENDS
**********
*SRC=L14334;L14334;Inductors;Newport;
*SYM=IND
.SUBCKT L14334 1 2
LO  1 4 3.30E-04 
V1  4 3
B1  1 4 I=I(V1)^3 * -8.31E-07/(3*3.30E-04)
RDC 3 2    0.054
CP  1 2  5.33E-11
RP  1 2  1.12E+05
.ENDS
**********
*SRC=L14335;L14335;Inductors;Newport;
*SYM=IND
.SUBCKT L14335 1 2
LO  1 4 3.30E-03 
V1  4 3
B1  1 4 I=I(V1)^3 * -7.48E-05/(3*3.30E-03)
RDC 3 2    0.548
CP  1 2  4.80E-11
RP  1 2  1.82E+05
.ENDS
**********
*SRC=L14336;L14336;Inductors;Newport;
*SYM=IND
.SUBCKT L14336 1 2
LO  1 4 3.30E-02 
V1  4 3
B1  1 4 I=I(V1)^3 * -9.17E-03/(3*3.30E-02)
RDC 3 2    5.320
CP  1 2  7.68E-11
RP  1 2  5.18E+05
.ENDS
**********
*SRC=L14473;L14473;Inductors;Newport;
*SYM=IND
.SUBCKT L14473 1 2
LO  1 4 4.70E-05 
V1  4 3
B1  1 4 I=I(V1)^3 * -6.51E-08/(3*4.70E-05)
RDC 3 2    0.023
CP  1 2  1.20E-11
RP  1 2  6.53E+04
.ENDS
**********
*SRC=L14474;L14474;Inductors;Newport;
*SYM=IND
.SUBCKT L14474 1 2
LO  1 4 4.70E-04 
V1  4 3
B1  1 4 I=I(V1)^3 * -1.35E-06/(3*4.70E-04)
RDC 3 2    0.066
CP  1 2  5.39E-11
RP  1 2  1.77E+05
.ENDS
**********
*SRC=L14475;L14475;Inductors;Newport;
*SYM=IND
.SUBCKT L14475 1 2
LO  1 4 4.70E-03 
V1  4 3
B1  1 4 I=I(V1)^3 * -1.45E-04/(3*4.70E-03)
RDC 3 2    0.748
CP  1 2  5.99E-11
RP  1 2  4.78E+05
.ENDS
**********
*SRC=L14476;L14476;Inductors;Newport;
*SYM=IND
.SUBCKT L14476 1 2
LO  1 4 4.70E-02 
V1  4 3
B1  1 4 I=I(V1)^3 * -1.88E-02/(3*4.70E-02)
RDC 3 2    8.190
CP  1 2  5.39E-11
RP  1 2  8.86E+05
.ENDS
**********
*SRC=L14683;L14683;Inductors;Newport;
*SYM=IND
.SUBCKT L14683 1 2
LO  1 4 6.80E-05 
V1  4 3
B1  1 4 I=I(V1)^3 * -1.28E-07/(3*6.80E-05)
RDC 3 2    0.024
CP  1 2  1.33E-11
RP  1 2  1.02E+05
.ENDS
**********
*SRC=L14684;L14684;Inductors;Newport;
*SYM=IND
.SUBCKT L14684 1 2
LO  1 4 6.80E-04 
V1  4 3
B1  1 4 I=I(V1)^3 * -3.08E-06/(3*6.80E-04)
RDC 3 2    0.111
CP  1 2  4.60E-11
RP  1 2  1.65E+05
.ENDS
**********
*SRC=L14685;L14685;Inductors;Newport;
*SYM=IND
.SUBCKT L14685 1 2
LO  1 4 6.80E-03 
V1  4 3
B1  1 4 I=I(V1)^3 * -3.47E-04/(3*6.80E-03)
RDC 3 2    1.040
CP  1 2  4.14E-11
RP  1 2  2.18E+05
.ENDS
**********
*SRC=L14905;L14905;Inductors;Newport;
*SYM=IND
.SUBCKT L14905 1 2
LO  1 4 9.00E-03 
V1  4 3
B1  1 4 I=I(V1)^3 * -9.00E-04/(3*9.00E-03)
RDC 3 2    1.950
CP  1 2  7.04E-11
RP  1 2  3.73E+05
.ENDS
**********
*SRC=L17103;L17103;Inductors;Newport;
*SYM=IND
.SUBCKT L17103 1 2
LO  1 4 1.00E-05 
V1  4 3
B1  1 4 I=I(V1)^3 * -3.09E-07/(3*1.00E-05)
RDC 3 2    0.045
CP  1 2  5.64E-12
RP  1 2  5.33E+04
.ENDS
**********
*SRC=L17104;L17104;Inductors;Newport;
*SYM=IND
.SUBCKT L17104 1 2
LO  1 4 1.00E-04 
V1  4 3
B1  1 4 I=I(V1)^3 * -1.83E-05/(3*1.00E-04)
RDC 3 2    0.350
CP  1 2  3.20E-12
RP  1 2  3.63E+05
.ENDS
**********
*SRC=L17105;L17105;Inductors;Newport;
*SYM=IND
.SUBCKT L17105 1 2
LO  1 4 1.00E-03 
V1  4 3
B1  1 4 I=I(V1)^3 * -2.77E-03/(3*1.00E-03)
RDC 3 2    3.300
CP  1 2  4.05E-12
RP  1 2  1.88E+06
.ENDS
**********
*SRC=L17153;L17153;Inductors;Newport;
*SYM=IND
.SUBCKT L17153 1 2
LO  1 4 1.50E-05 
V1  4 3
B1  1 4 I=I(V1)^3 * -6.67E-07/(3*1.50E-05)
RDC 3 2    0.060
CP  1 2  4.49E-12
RP  1 2  5.49E+04
.ENDS
**********
*SRC=L17154;L17154;Inductors;Newport;
*SYM=IND
.SUBCKT L17154 1 2
LO  1 4 1.50E-04 
V1  4 3
B1  1 4 I=I(V1)^3 * -4.46E-05/(3*1.50E-04)
RDC 3 2    0.490
CP  1 2  4.39E-12
RP  1 2  4.67E+05
.ENDS
**********
*SRC=L17155;L17155;Inductors;Newport;
*SYM=IND
.SUBCKT L17155 1 2
LO  1 4 1.50E-03 
V1  4 3
B1  1 4 I=I(V1)^3 * -6.67E-03/(3*1.50E-03)
RDC 3 2    5.900
CP  1 2  3.83E-12
RP  1 2  2.57E+06
.ENDS
**********
*SRC=L17223;L17223;Inductors;Newport;
*SYM=IND
.SUBCKT L17223 1 2
LO  1 4 2.20E-05 
V1  4 3
B1  1 4 I=I(V1)^3 * -1.53E-06/(3*2.20E-05)
RDC 3 2    0.082
CP  1 2  3.98E-12
RP  1 2  7.05E+04
.ENDS
**********
*SRC=L17224;L17224;Inductors;Newport;
*SYM=IND
.SUBCKT L17224 1 2
LO  1 4 2.20E-04 
V1  4 3
B1  1 4 I=I(V1)^3 * -9.55E-05/(3*2.20E-04)
RDC 3 2    0.750
CP  1 2  3.95E-12
RP  1 2  6.72E+05
.ENDS
**********
*SRC=L17225;L17225;Inductors;Newport;
*SYM=IND
.SUBCKT L17225 1 2
LO  1 4 2.20E-03 
V1  4 3
B1  1 4 I=I(V1)^3 * -1.53E-02/(3*2.20E-03)
RDC 3 2    7.800
CP  1 2  3.19E-12
RP  1 2  3.41E+06
.ENDS
**********
*SRC=L17333;L17333;Inductors;Newport;
*SYM=IND
.SUBCKT L17333 1 2
LO  1 4 3.30E-05 
V1  4 3
B1  1 4 I=I(V1)^3 * -3.30E-06/(3*3.30E-05)
RDC 3 2    0.130
CP  1 2  5.91E-12
RP  1 2  5.91E+04
.ENDS
**********
*SRC=L17334;L17334;Inductors;Newport;
*SYM=IND
.SUBCKT L17334 1 2
LO  1 4 3.30E-04 
V1  4 3
B1  1 4 I=I(V1)^3 * -1.87E-04/(3*3.30E-04)
RDC 3 2    1.100
CP  1 2  3.79E-12
RP  1 2  8.86E+05
.ENDS
**********
*SRC=L17473;L17473;Inductors;Newport;
*SYM=IND
.SUBCKT L17473 1 2
LO  1 4 4.70E-05 
V1  4 3
B1  1 4 I=I(V1)^3 * -6.35E-06/(3*4.70E-05)
RDC 3 2    0.200
CP  1 2  4.54E-12
RP  1 2  8.05E+04
.ENDS
**********
*SRC=L17474;L17474;Inductors;Newport;
*SYM=IND
.SUBCKT L17474 1 2
LO  1 4 4.70E-04 
V1  4 3
B1  1 4 I=I(V1)^3 * -4.07E-04/(3*4.70E-04)
RDC 3 2    1.560
CP  1 2  5.26E-12
RP  1 2  9.45E+05
.ENDS
**********
*SRC=L17476;L17476;Inductors;Newport;
*SYM=IND
.SUBCKT L17476 1 2
LO  1 4 4.70E-02 
V1  4 3
B1  1 4 I=I(V1)^3 * -4.70E-01/(3*4.70E-02)
RDC 3 2   16.000
CP  1 2  3.74E-13
RP  1 2  4.61E+07
.ENDS
**********
*SRC=L17683;L17683;Inductors;Newport;
*SYM=IND
.SUBCKT L17683 1 2
LO  1 4 6.80E-05 
V1  4 3
B1  1 4 I=I(V1)^3 * -9.41E-06/(3*6.80E-05)
RDC 3 2    0.260
CP  1 2  3.32E-12
RP  1 2  3.17E+05
.ENDS
**********
*SRC=L17684;L17684;Inductors;Newport;
*SYM=IND
.SUBCKT L17684 1 2
LO  1 4 6.80E-04 
V1  4 3
B1  1 4 I=I(V1)^3 * -8.67E-04/(3*6.80E-04)
RDC 3 2    2.430
CP  1 2  4.14E-12
RP  1 2  1.35E+06
.ENDS
**********
*SRC=L17823;L17823;Inductors;Newport;
*SYM=IND
.SUBCKT L17823 1 2
LO  1 4 8.20E-05 
V1  4 3
B1  1 4 I=I(V1)^3 * -1.31E-05/(3*8.20E-05)
RDC 3 2    0.290
CP  1 2  3.73E-12
RP  1 2  3.75E+05
.ENDS
**********
*SRC=L17824;L17824;Inductors;Newport;
*SYM=IND
.SUBCKT L17824 1 2
LO  1 4 8.20E-04 
V1  4 3
B1  1 4 I=I(V1)^3 * -1.21E-03/(3*8.20E-04)
RDC 3 2    2.700
CP  1 2  3.94E-12
RP  1 2  1.66E+06
.ENDS
**********
*SRC=L18103;L18103;Inductors;Newport;
*SYM=IND
.SUBCKT L18103 1 2
LO  1 4 1.00E-05 
V1  4 3
B1  1 4 I=I(V1)^3 * -8.40E-08/(3*1.00E-05)
RDC 3 2    0.011
CP  1 2  7.02E-12
RP  1 2  7.64E+04
.ENDS
**********
*SRC=L18104;L18104;Inductors;Newport;
*SYM=IND
.SUBCKT L18104 1 2
LO  1 4 1.00E-04 
V1  4 3
B1  1 4 I=I(V1)^3 * -6.40E-06/(3*1.00E-04)
RDC 3 2    0.085
CP  1 2  4.63E-12
RP  1 2  1.86E+05
.ENDS
**********
*SRC=L18105;L18105;Inductors;Newport;
*SYM=IND
.SUBCKT L18105 1 2
LO  1 4 1.00E-03 
V1  4 3
B1  1 4 I=I(V1)^3 * -5.41E-04/(3*1.00E-03)
RDC 3 2    0.920
CP  1 2  9.89E-12
RP  1 2  9.45E+05
.ENDS
**********
*SRC=L18106;L18106;Inductors;Newport;
*SYM=IND
.SUBCKT L18106 1 2
LO  1 4 1.00E-02 
V1  4 3
B1  1 4 I=I(V1)^3 * -5.92E-02/(3*1.00E-02)
RDC 3 2   12.000
CP  1 2  1.01E-11
RP  1 2  4.49E+06
.ENDS
**********
*SRC=L18153;L18153;Inductors;Newport;
*SYM=IND
.SUBCKT L18153 1 2
LO  1 4 1.50E-05 
V1  4 3
B1  1 4 I=I(V1)^3 * -1.67E-07/(3*1.50E-05)
RDC 3 2    0.016
CP  1 2  6.68E-12
RP  1 2  8.24E+04
.ENDS
**********
*SRC=L18154;L18154;Inductors;Newport;
*SYM=IND
.SUBCKT L18154 1 2
LO  1 4 1.50E-04 
V1  4 3
B1  1 4 I=I(V1)^3 * -1.24E-05/(3*1.50E-04)
RDC 3 2    0.145
CP  1 2  8.72E-12
RP  1 2  1.95E+05
.ENDS
**********
*SRC=L18155;L18155;Inductors;Newport;
*SYM=IND
.SUBCKT L18155 1 2
LO  1 4 1.50E-03 
V1  4 3
B1  1 4 I=I(V1)^3 * -1.04E-03/(3*1.50E-03)
RDC 3 2    1.400
CP  1 2  9.99E-12
RP  1 2  1.31E+06
.ENDS
**********
*SRC=L18223;L18223;Inductors;Newport;
*SYM=IND
.SUBCKT L18223 1 2
LO  1 4 2.20E-05 
V1  4 3
B1  1 4 I=I(V1)^3 * -3.76E-07/(3*2.20E-05)
RDC 3 2    0.020
CP  1 2  8.27E-12
RP  1 2  9.62E+04
.ENDS
**********
*SRC=L18224;L18224;Inductors;Newport;
*SYM=IND
.SUBCKT L18224 1 2
LO  1 4 2.20E-04 
V1  4 3
B1  1 4 I=I(V1)^3 * -2.66E-05/(3*2.20E-04)
RDC 3 2    0.200
CP  1 2  9.40E-12
RP  1 2  2.23E+05
.ENDS
**********
*SRC=L18225;L18225;Inductors;Newport;
*SYM=IND
.SUBCKT L18225 1 2
LO  1 4 2.20E-03 
V1  4 3
B1  1 4 I=I(V1)^3 * -2.44E-03/(3*2.20E-03)
RDC 3 2    2.000
CP  1 2  9.52E-12
RP  1 2  1.64E+06
.ENDS
**********
*SRC=L18254;L18254;Inductors;Newport;
*SYM=IND
.SUBCKT L18254 1 2
LO  1 4 2.50E-04 
V1  4 3
B1  1 4 I=I(V1)^3 * -3.91E-05/(3*2.50E-04)
RDC 3 2    0.230
CP  1 2  7.40E-12
RP  1 2  2.91E+05
.ENDS
**********
*SRC=L18333;L18333;Inductors;Newport;
*SYM=IND
.SUBCKT L18333 1 2
LO  1 4 3.30E-05 
V1  4 3
B1  1 4 I=I(V1)^3 * -8.25E-07/(3*3.30E-05)
RDC 3 2    0.035
CP  1 2  8.69E-12
RP  1 2  9.36E+04
.ENDS
**********
*SRC=L18334;L18334;Inductors;Newport;
*SYM=IND
.SUBCKT L18334 1 2
LO  1 4 3.30E-04 
V1  4 3
B1  1 4 I=I(V1)^3 * -6.19E-05/(3*3.30E-04)
RDC 3 2    0.315
CP  1 2  8.53E-12
RP  1 2  3.61E+05
.ENDS
**********
*SRC=L18335;L18335;Inductors;Newport;
*SYM=IND
.SUBCKT L18335 1 2
LO  1 4 3.30E-03 
V1  4 3
B1  1 4 I=I(V1)^3 * -6.24E-03/(3*3.30E-03)
RDC 3 2    3.400
CP  1 2  1.20E-11
RP  1 2  2.37E+06
.ENDS
**********
*SRC=L18472;L18472;Inductors;Newport;
*SYM=IND
.SUBCKT L18472 1 2
LO  1 4 4.70E-06 
V1  4 3
B1  1 4 I=I(V1)^3 * -1.64E-08/(3*4.70E-06)
RDC 3 2    0.005
CP  1 2  4.07E-12
RP  1 2  1.20E+05
.ENDS
**********
*SRC=L18473;L18473;Inductors;Newport;
*SYM=IND
.SUBCKT L18473 1 2
LO  1 4 4.70E-05 
V1  4 3
B1  1 4 I=I(V1)^3 * -1.73E-06/(3*4.70E-05)
RDC 3 2    0.041
CP  1 2  7.46E-12
RP  1 2  1.38E+05
.ENDS
**********
*SRC=L18474;L18474;Inductors;Newport;
*SYM=IND
.SUBCKT L18474 1 2
LO  1 4 4.70E-04 
V1  4 3
B1  1 4 I=I(V1)^3 * -1.22E-04/(3*4.70E-04)
RDC 3 2    0.425
CP  1 2  1.11E-11
RP  1 2  3.64E+05
.ENDS
**********
*SRC=L18475;L18475;Inductors;Newport;
*SYM=IND
.SUBCKT L18475 1 2
LO  1 4 4.70E-03 
V1  4 3
B1  1 4 I=I(V1)^3 * -1.17E-02/(3*4.70E-03)
RDC 3 2    4.400
CP  1 2  1.10E-11
RP  1 2  2.65E+06
.ENDS
**********
*SRC=L18682;L18682;Inductors;Newport;
*SYM=IND
.SUBCKT L18682 1 2
LO  1 4 6.80E-06 
V1  4 3
B1  1 4 I=I(V1)^3 * -3.95E-08/(3*6.80E-06)
RDC 3 2    0.007
CP  1 2  6.69E-12
RP  1 2  7.86E+04
.ENDS
**********
*SRC=L18683;L18683;Inductors;Newport;
*SYM=IND
.SUBCKT L18683 1 2
LO  1 4 6.80E-05 
V1  4 3
B1  1 4 I=I(V1)^3 * -3.73E-06/(3*6.80E-05)
RDC 3 2    0.060
CP  1 2  8.55E-12
RP  1 2  8.74E+04
.ENDS
**********
*SRC=L18684;L18684;Inductors;Newport;
*SYM=IND
.SUBCKT L18684 1 2
LO  1 4 6.80E-04 
V1  4 3
B1  1 4 I=I(V1)^3 * -2.42E-04/(3*6.80E-04)
RDC 3 2    0.620
CP  1 2  9.31E-12
RP  1 2  4.70E+05
.ENDS
**********
*SRC=L18685;L18685;Inductors;Newport;
*SYM=IND
.SUBCKT L18685 1 2
LO  1 4 6.80E-03 
V1  4 3
B1  1 4 I=I(V1)^3 * -3.02E-02/(3*6.80E-03)
RDC 3 2    7.000
CP  1 2  1.03E-11
RP  1 2  3.69E+06
.ENDS
**********
*SRC=L18R103;L18R103;Inductors;Newport;
*SYM=IND
.SUBCKT L18R103 1 2
LO  1 4 1.00E-05 
V1  4 3
B1  1 4 I=I(V1)^3 * -8.40E-08/(3*1.00E-05)
RDC 3 2    0.011
CP  1 2  4.47E-12
RP  1 2  8.82E+04
.ENDS
**********
*SRC=L18R104;L18R104;Inductors;Newport;
*SYM=IND
.SUBCKT L18R104 1 2
LO  1 4 1.00E-04 
V1  4 3
B1  1 4 I=I(V1)^3 * -6.40E-06/(3*1.00E-04)
RDC 3 2    0.085
CP  1 2  4.63E-12
RP  1 2  1.86E+05
.ENDS
**********
*SRC=L18R105;L18R105;Inductors;Newport;
*SYM=IND
.SUBCKT L18R105 1 2
LO  1 4 1.00E-03 
V1  4 3
B1  1 4 I=I(V1)^3 * -5.41E-04/(3*1.00E-03)
RDC 3 2    0.920
CP  1 2  7.65E-12
RP  1 2  1.05E+06
.ENDS
**********
*SRC=L18R106;L18R106;Inductors;Newport;
*SYM=IND
.SUBCKT L18R106 1 2
LO  1 4 1.00E-02 
V1  4 3
B1  1 4 I=I(V1)^3 * -2.97E-03/(3*1.00E-02)
RDC 3 2   12.000
CP  1 2  5.02E-12
RP  1 2  6.33E+06
.ENDS
**********
*SRC=L18R153;L18R153;Inductors;Newport;
*SYM=IND
.SUBCKT L18R153 1 2
LO  1 4 1.50E-05 
V1  4 3
B1  1 4 I=I(V1)^3 * -1.67E-07/(3*1.50E-05)
RDC 3 2    0.016
CP  1 2  5.84E-12
RP  1 2  8.81E+04
.ENDS
**********
*SRC=L18R154;L18R154;Inductors;Newport;
*SYM=IND
.SUBCKT L18R154 1 2
LO  1 4 1.50E-04 
V1  4 3
B1  1 4 I=I(V1)^3 * -1.24E-05/(3*1.50E-04)
RDC 3 2    0.145
CP  1 2  5.42E-12
RP  1 2  2.10E+05
.ENDS
**********
*SRC=L18R155;L18R155;Inductors;Newport;
*SYM=IND
.SUBCKT L18R155 1 2
LO  1 4 1.50E-03 
V1  4 3
B1  1 4 I=I(V1)^3 * -1.04E-03/(3*1.50E-03)
RDC 3 2    1.400
CP  1 2  6.60E-12
RP  1 2  1.60E+06
.ENDS
**********
*SRC=L18R223;L18R223;Inductors;Newport;
*SYM=IND
.SUBCKT L18R223 1 2
LO  1 4 2.20E-05 
V1  4 3
B1  1 4 I=I(V1)^3 * -3.76E-07/(3*2.20E-05)
RDC 3 2    0.020
CP  1 2  5.79E-12
RP  1 2  9.94E+04
.ENDS
**********
*SRC=L18R224;L18R224;Inductors;Newport;
*SYM=IND
.SUBCKT L18R224 1 2
LO  1 4 2.20E-04 
V1  4 3
B1  1 4 I=I(V1)^3 * -2.66E-05/(3*2.20E-04)
RDC 3 2    0.200
CP  1 2  7.20E-12
RP  1 2  2.16E+05
.ENDS
**********
*SRC=L18R225;L18R225;Inductors;Newport;
*SYM=IND
.SUBCKT L18R225 1 2
LO  1 4 2.20E-03 
V1  4 3
B1  1 4 I=I(V1)^3 * -2.44E-03/(3*2.20E-03)
RDC 3 2    2.000
CP  1 2  5.79E-12
RP  1 2  2.07E+06
.ENDS
**********
*SRC=L18R254;L18R254;Inductors;Newport;
*SYM=IND
.SUBCKT L18R254 1 2
LO  1 4 2.50E-04 
V1  4 3
B1  1 4 I=I(V1)^3 * -3.91E-05/(3*2.50E-04)
RDC 3 2    0.230
CP  1 2  6.84E-12
RP  1 2  2.42E+05
.ENDS
**********
*SRC=L18R333;L18R333;Inductors;Newport;
*SYM=IND
.SUBCKT L18R333 1 2
LO  1 4 3.30E-05 
V1  4 3
B1  1 4 I=I(V1)^3 * -8.25E-07/(3*3.30E-05)
RDC 3 2    0.350
CP  1 2  6.01E-12
RP  1 2  1.12E+05
.ENDS
**********
*SRC=L18R334;L18R334;Inductors;Newport;
*SYM=IND
.SUBCKT L18R334 1 2
LO  1 4 3.30E-04 
V1  4 3
B1  1 4 I=I(V1)^3 * -6.19E-05/(3*3.30E-04)
RDC 3 2    0.315
CP  1 2  6.02E-12
RP  1 2  3.63E+05
.ENDS
**********
*SRC=L18R335;L18R335;Inductors;Newport;
*SYM=IND
.SUBCKT L18R335 1 2
LO  1 4 3.30E-03 
V1  4 3
B1  1 4 I=I(V1)^3 * -6.24E-03/(3*3.30E-03)
RDC 3 2    3.400
CP  1 2  7.10E-12
RP  1 2  3.00E+06
.ENDS
**********
*SRC=L18R472;L18R472;Inductors;Newport;
*SYM=IND
.SUBCKT L18R472 1 2
LO  1 4 4.70E-06 
V1  4 3
B1  1 4 I=I(V1)^3 * -1.64E-08/(3*4.70E-06)
RDC 3 2    0.005
CP  1 2  4.37E-12
RP  1 2  1.10E+05
.ENDS
**********
*SRC=L18R473;L18R473;Inductors;Newport;
*SYM=IND
.SUBCKT L18R473 1 2
LO  1 4 4.70E-05 
V1  4 3
B1  1 4 I=I(V1)^3 * -1.73E-06/(3*4.70E-05)
RDC 3 2    0.041
CP  1 2  5.55E-12
RP  1 2  1.34E+05
.ENDS
**********
*SRC=L18R474;L18R474;Inductors;Newport;
*SYM=IND
.SUBCKT L18R474 1 2
LO  1 4 4.70E-04 
V1  4 3
B1  1 4 I=I(V1)^3 * -1.22E-04/(3*4.70E-04)
RDC 3 2    0.425
CP  1 2  6.83E-12
RP  1 2  4.15E+05
.ENDS
**********
*SRC=L18R475;L18R475;Inductors;Newport;
*SYM=IND
.SUBCKT L18R475 1 2
LO  1 4 4.70E-03 
V1  4 3
B1  1 4 I=I(V1)^3 * -1.17E-02/(3*4.70E-03)
RDC 3 2    4.400
CP  1 2  7.12E-12
RP  1 2  3.24E+06
.ENDS
**********
*SRC=L18R682;L18R682;Inductors;Newport;
*SYM=IND
.SUBCKT L18R682 1 2
LO  1 4 6.80E-06 
V1  4 3
B1  1 4 I=I(V1)^3 * -3.95E-08/(3*6.80E-06)
RDC 3 2    0.007
CP  1 2  5.39E-12
RP  1 2  8.20E+04
.ENDS
**********
*SRC=L18R683;L18R683;Inductors;Newport;
*SYM=IND
.SUBCKT L18R683 1 2
LO  1 4 6.80E-05 
V1  4 3
B1  1 4 I=I(V1)^3 * -3.73E-06/(3*6.80E-05)
RDC 3 2    0.060
CP  1 2  5.42E-12
RP  1 2  9.56E+04
.ENDS
**********
*SRC=L18R684;L18R684;Inductors;Newport;
*SYM=IND
.SUBCKT L18R684 1 2
LO  1 4 6.80E-04 
V1  4 3
B1  1 4 I=I(V1)^3 * -2.42E-04/(3*6.80E-04)
RDC 3 2    0.620
CP  1 2  6.31E-12
RP  1 2  4.98E+05
.ENDS
**********
*SRC=L18R685;L18R685;Inductors;Newport;
*SYM=IND
.SUBCKT L18R685 1 2
LO  1 4 6.80E-03 
V1  4 3
B1  1 4 I=I(V1)^3 * -3.02E-02/(3*6.80E-03)
RDC 3 2    7.000
CP  1 2  7.39E-12
RP  1 2  4.34E+06
.ENDS
**********
*SRC=L19102;L19102;Inductors;Newport;
*SYM=IND
.SUBCKT L19102 1 2
LO  1 4 1.00E-06 
V1  4 3
B1  1 4 I=I(V1)^3 * -4.44E-10/(3*1.00E-06)
RDC 3 2    0.010
CP  1 2  1.13E-12
RP  1 2  2.83E+04
.ENDS
**********
*SRC=L19103;L19103;Inductors;Newport;
*SYM=IND
.SUBCKT L19103 1 2
LO  1 4 1.00E-05 
V1  4 3
B1  1 4 I=I(V1)^3 * -1.78E-08/(3*1.00E-05)
RDC 3 2    0.025
CP  1 2  7.04E-13
RP  1 2  2.26E+05
.ENDS
**********
*SRC=L19104;L19104;Inductors;Newport;
*SYM=IND
.SUBCKT L19104 1 2
LO  1 4 1.00E-04 
V1  4 3
B1  1 4 I=I(V1)^3 * -2.07E-06/(3*1.00E-04)
RDC 3 2    0.065
CP  1 2  1.67E-12
RP  1 2  7.73E+05
.ENDS
**********
*SRC=L19105;L19105;Inductors;Newport;
*SYM=IND
.SUBCKT L19105 1 2
LO  1 4 1.00E-03 
V1  4 3
B1  1 4 I=I(V1)^3 * -4.00E-04/(3*1.00E-03)
RDC 3 2    0.220
CP  1 2  4.50E-11
RP  1 2  4.24E+05
.ENDS
**********
*SRC=L19222;L19222;Inductors;Newport;
*SYM=IND
.SUBCKT L19222 1 2
LO  1 4 2.20E-06 
V1  4 3
B1  1 4 I=I(V1)^3 * -1.12E-09/(3*2.20E-06)
RDC 3 2    0.012
CP  1 2  6.81E-13
RP  1 2  5.39E+04
.ENDS
**********
*SRC=L19223;L19223;Inductors;Newport;
*SYM=IND
.SUBCKT L19223 1 2
LO  1 4 2.20E-05 
V1  4 3
B1  1 4 I=I(V1)^3 * -1.09E-07/(3*2.20E-05)
RDC 3 2    0.035
CP  1 2  7.20E-13
RP  1 2  1.66E+05
.ENDS
**********
*SRC=L19224;L19224;Inductors;Newport;
*SYM=IND
.SUBCKT L19224 1 2
LO  1 4 2.20E-04 
V1  4 3
B1  1 4 I=I(V1)^3 * -1.53E-05/(3*2.20E-04)
RDC 3 2    0.100
CP  1 2  1.37E-11
RP  1 2  3.61E+05
.ENDS
**********
*SRC=L19332;L19332;Inductors;Newport;
*SYM=IND
.SUBCKT L19332 1 2
LO  1 4 3.30E-06 
V1  4 3
B1  1 4 I=I(V1)^3 * -1.89E-09/(3*3.30E-06)
RDC 3 2    0.015
CP  1 2  7.68E-13
RP  1 2  6.22E+04
.ENDS
**********
*SRC=L19333;L19333;Inductors;Newport;
*SYM=IND
.SUBCKT L19333 1 2
LO  1 4 3.30E-05 
V1  4 3
B1  1 4 I=I(V1)^3 * -2.06E-07/(3*3.30E-05)
RDC 3 2    0.040
CP  1 2  8.53E-13
RP  1 2  3.73E+05
.ENDS
**********
*SRC=L19334;L19334;Inductors;Newport;
*SYM=IND
.SUBCKT L19334 1 2
LO  1 4 3.30E-04 
V1  4 3
B1  1 4 I=I(V1)^3 * -3.30E-05/(3*3.30E-04)
RDC 3 2    0.120
CP  1 2  2.66E-11
RP  1 2  3.17E+05
.ENDS
**********
*SRC=L19472;L19472;Inductors;Newport;
*SYM=IND
.SUBCKT L19472 1 2
LO  1 4 4.70E-06 
V1  4 3
B1  1 4 I=I(V1)^3 * -2.70E-09/(3*4.70E-06)
RDC 3 2    0.018
CP  1 2  6.65E-13
RP  1 2  6.64E+04
.ENDS
**********
*SRC=L19473;L19473;Inductors;Newport;
*SYM=IND
.SUBCKT L19473 1 2
LO  1 4 4.70E-05 
V1  4 3
B1  1 4 I=I(V1)^3 * -4.59E-07/(3*4.70E-05)
RDC 3 2    0.045
CP  1 2  1.35E-12
RP  1 2  2.07E+05
.ENDS
**********
*SRC=L19474;L19474;Inductors;Newport;
*SYM=IND
.SUBCKT L19474 1 2
LO  1 4 4.70E-04 
V1  4 3
B1  1 4 I=I(V1)^3 * -7.34E-05/(3*4.70E-04)
RDC 3 2    0.145
CP  1 2  3.19E-11
RP  1 2  3.46E+05
.ENDS
**********
*SRC=L19682;L19682;Inductors;Newport;
*SYM=IND
.SUBCKT L19682 1 2
LO  1 4 6.80E-06 
V1  4 3
B1  1 4 I=I(V1)^3 * -9.41E-09/(3*6.80E-06)
RDC 3 2    0.020
CP  1 2  6.62E-13
RP  1 2  8.01E+04
.ENDS
**********
*SRC=L19683;L19683;Inductors;Newport;
*SYM=IND
.SUBCKT L19683 1 2
LO  1 4 6.80E-05 
V1  4 3