**********
* Copyright Intusoft 1986-1997
* All Rights Reserved
**********
*SRC=AD620;AD620;Inst. Amps;Analog Devices;
*SYM=AD620
* AD620 SPICE Macro-model               10/95, Rev. B
*                                       ARG / ADSC
*
* Revision History:
*     Rev. B
* Added V2,V3,V12,V13 and D3,D4,D15,D16 to clamp inputs to Q3,Q4 to
* prevent output phase reversal.
*
*
* Copyright 1990 by Analog Devices, Inc.
*
* Node assignments
*                 non-inverting input
*                 |  inverting input
*                 |  |  positive supply
*                 |  |  |  negative supply
*                 |  |  |  |  output
*                 |  |  |  |  |  ref
*                 |  |  |  |  |  |  rg1
*                 |  |  |  |  |  |  |  rg2
*                 |  |  |  |  |  |  |  |
.SUBCKT AD620     1  2  99 50 46 20 7  8
*
* INPUT STAGE
*
I1   7    50   5.0005E-6
I2   8    50   5.0005E-6
IOS  3    4    0.15E-9
VIOS 21   3    15E-6
CCM  3    4    2E-12
CD1  3    0    2E-12
CD2  4    0    2E-12
Q1   5    4    7    QN1
Q2   6    21   8    QN1
D1   7    4    DX
D2   8    21   DX
R1   1    3    400
R2   2    4    400
R3   99   5    100E3
R4   99   6    100E3
R5   7    9    24.7E3
R6   8    10   24.7E3
E1   9    46   11 5  375E6
E2   10   46   11 6  375E6
V1   99   11   0.5
RV1  99   11   1E3
CC1  5    9    4E-12
CC2  6    10   4E-12
*
* DIFFERENCE AMPLIFIER AND POLE AT 1MHZ
*
I3   18   50   5E-6
R7   99   12   19.099E3
R8   99   15   19.099E3
R9   14   18   8.754E3
R10  17   18   8.754E3
R11  9    13   10E3
R12  13   46   10E3
Q3   12   13   14   QN2
Q4   15   16   17   QN2
R13  19   16   10E3
R14  16   20   10E3
C1   12   15   2.083E-12
EOOS 19   10   POLY(1)  38 98  200E-6 31.623
EREF 98   0    POLY(2)  99 0   50 0  0 0.5 0.5
D3 13 51 DX
D4 16 52 DX
V2 99 51 0.7
V3 99 52 0.7
D15 53 13 DX
D16 54 16 DX
V12 53 50 0.7
V13 54 50 0.7
*
* GAIN STAGE AND DOMINANT POLE AT 0.667HZ
*
R16  25   98   57.296E9
C2   25   98   4.167E-12
G1   98   25    12 15  52.360E-6
V6   99   26   1.53
V7   27   50   1.33
D7   25   26   DX
D8   27   25   DX
*
* POLE AT 10MHZ
*
R17  40   98   1
C3   40   98   15.916E-9
G2   98   40    25 98  1
*
* COMMON MODE STAGE WITH ZERO AT 100HZ
*
E3   36   98   POLY(2)  1 98   2 98  0 0.5 0.5
R18  36   38   1E6
R19  38   98   1
C5   36   38   1.592E-9
*
* OUTPUT STAGE
*
GSY  99   50   POLY(1)  99 50  0.7725E-3 3.125E-6
RO1  99   45   250
RO2  45   50   250
L1   45   46   1E-6
GO1  45   99    99 40  4E-3
GO2  50   45    40 50  4E-3
GC1  43   50    40 45  4E-3
GC2  44   50    45 40  4E-3
F1   45   0    V4 1
F2   0    45   V5 1
V4   41   45   1.65
V5   45   42   1.65
D9   50   43   DY
D10  50   44   DY
D11  99   43   DX
D12  99   44   DX
D13  40   41   DX
D14  42   40   DX
*
* MODELS USED
*
.MODEL DX D(IS=1E-12)
.MODEL DY D(IS=1E-12 BV=50)
.MODEL QN1 NPN(BF=10E3 KF=0.7E-15 AF=1)
.MODEL QN2 NPN(BF=250 KF=0.5E-14 AF=1)
.ENDS
**********
*SRC=AD820;AD820;Opamps;AD-"ADxxx";
*SYM=ADOPAMP
* AD820  SPICE Macro-model                  8/91, Rev. A
*                                           JCB / PMI
* Node assignments
*                non-inverting input
*                | inverting input
*                | | positive supply
*                | | |  negative supply
*                | | |  |  output
*                | | |  |  |
.SUBCKT AD820    1 2 99 50 25
*
* INPUT STAGE & POLE AT 3 MHZ
*
R3   5  99   2456
R4   6  99   2456
CIN  1   2   5E-12
C2   5   6   10.8E-12
I1   4  50   108E-6
IOS  1   2   1E-12
EOS  7   1   POLY(1) (12,98) 100E-6  1
J1   4   2   5   JX
J2   4   7   6   JX
*
EREF 98  0   30  0  1
*
* GAIN STAGE & POLE AT 124 HZ
*
R5   9  98   2.46E6
C3   9  25   35E-12
G1   98  9   6  5  4.07E-4
V1   8  98   0
V2   98 10   -1
D1   9  10   DX
D2   8   9   DX
*
* COMMON-MODE GAIN NETWORK WITH ZERO AT 1 KHZ
*
R21  11 12   1E6
R22  12 98   1
C14  11 12   159E-12
E13  11 98   POLY(2) (2,98) (1,98) 0 50 50
*
* POLE AT 10 MHZ
*
R23  18 98   1E6
C15  18 98   15.9E-15
G15  98 18   9  98  1E-6
*
* OUTPUT STAGE
*
ES   26  51  POLY(1) (18,98) 1.72 1
RS   26  22  500
V3   23  51  1.1
V4   21  23  1.36
C16  20  25  2E-12
C17  24  25  2E-12
RG1  20  97  1E8
RG2  24  97  1E8
Q1   20  20  97  PNP
Q2   20  21  22  NPN
Q3   24  23  22  PNP
Q4   24  24  51  NPN
Q5   25  20  97  PNP 20
Q6   25  24  51  NPN 20
VP   96  97  0
VN   51  52  0
EP   96  0   POLY(1) (99,0) 0.01 1
EN   52  0   POLY(1) (50,0) -0.015 1
*
R25  30 99   5E6
R26  30 50   5E6
FSY1 99  0   VP 1
FSY2 0  50   VN 1 
*
* MODELS USED
*
.MODEL JX   NJF(BETA=7.67E-4  VTO=-2.000  IS=1E-12)
.MODEL NPN  NPN(BF=120 VAF=150 VAR=15 RB=2E3
+ RE=4 RC=200 IS=1E-16)
.MODEL PNP  PNP(BF=80 VAF=150 VAR=15 RB=2E3
+ RE=4 RC=900 IS=1E-16)
.MODEL DX   D(IS=1E-15)
.ENDS
**********
*SRC=EL2020E;EL2020E;Opamps;Elantec;Transimped., 500V/us
*SYM=BBOPAMP
*EL2020 MACROMODEL
* CONNECTIONS:        +INPUT
*                       |  -INPUT
*                       |    | +VSUPPLY
*                       |    |    | -VSUPPLY
*                       |    |    |    |  OUTPUT
*                       |    |    |    |    |
.SUBCKT EL2020E         3    2    7    4    6
*
* INPUT STAGE
*
E1  10 0 3 0 1.0
VIS 10 9 0V
H2   9 12 VXX 1.0
R1  2 11 50
L1 11 12 29NH
IINP 3 0 10UA
IINM 2 0  5UA
*
* SLEW RATE LIMITING
*
H1 13  0 VIS 600
R2 13 14 1K
D1 14  0  DCLAMP
D2  0 14  DCLAMP
*
* HIGH FREQUENCY POLE
*
E2 30 0 14 0 0.00166666666
L5 30 17 1.5UH
C5 17 0 1PF
R5 17 0 500
*
* TRANSIMPEDANCE STAGE
*
G1 0 18 17 0 1.0
ROL 18 0 1MEG
CDP 18 0 5PF
*
* OUTPUT STAGE
*
Q1 4 18 19 QP
Q2 7 18 20 QN
Q3 7 19 21 QN
Q4 4 20 22 QP
R7 21 6 4
R8 22 6 4
IOS1 7 19 2.5MA
IOS2 20 4 2.5MA
*
* SUPPLY
*
IPS 7 4 3MA
*
* ERROR TERMS
*
IVOS 0 23 5MA
VXX 23 0 0V
E4  24 0 3 0 1.0
E5  25 0 7 0 1.0
E6  26 0 4 0 1.0
R9  24 23 1K
R10 25 23 1K
R11 26 23 1K
*
* MODELS
*
.MODEL QN NPN(IS=5E-15 BF=100 TF=0.2NS)
.MODEL QP PNP(IS=5E-15 BF=100 TF=0.2NS)
.MODEL DCLAMP D(IS=1E-30 IBV=0.266 BV=1.67 N=4)
.ENDS
**********
*SRC=HA2540;HA2540;Opamps;Harris;Wideband 400MHz
*SYM=HA2540
.SUBCKT HA2540 3   4   16  20 21
*Connections   In+ In- Out V+ V-
* Rev: 8/17/89
*
* INPUT STAGE
*
CN1 4 0 1P
LN 4 40 5N
RN 40 41 30
RCN 41 0 10MEG
IBN 41 0 10U
CN2 41 0 0.5P
CP1 3 0 1P
LP 3 30 5N
RP 30 31 30
RCP 31 0 10MEG
IBP 31 0 8U
CP2 31 0 0.5P
RDF 41 42 43K
VOF 42 31 2M
*
* SLEW LIMITING
*
ED 1 0 42 41 10
RDA 1 33 75
CDA 33 0 7P
RDB 33 2 75
CDB 2 0 3P
D1 2 5 DM ; OFF
D2 6 2 DM ; OFF
.MODEL DM D (IS=1N BV=40 IBV=50U)
VCP 5 0 1.2
VCN 0 6 1.2
*
* COMPENSATION
*
GA 0 7 2 0 1.43M
RH 7 0 1.3MEG
CH 7 0 5.5P
RC 7 8 600
CC 8 0 2.2P
*
* POLES
*
EP 9 0 8 0 1
RPA 9 10 75
CPA 10 0 7P
RPB 10 11 50
CPB 11 0 3P
*
* OUTPUT STAGE
*
EO 12 0 11 0 1
RO 12 13 25
LO 13 16 5N
CO 16 0 1P
*
* POWER SUPPLY CURRENT
*
IPS 20 21 20M
.ENDS
**********
*SRC=INA120E;INA120E;Inst. Amps;Burr-Brown;Precision, Low VOS 25uV max.
*SYM=INA120
* INA120E = A1_120E + A2_120E + A3_120E OP AMPS + PRECISION RESISTOR NETWORK
** INA120E SUB-CIRCUIT
* CONNECTIONS:          NON-INVERTING INPUT
*                       |   INVERTING INPUT
*                       |   |   POSITIVE POWER SUPPLY
*                       |   |   |   NEGATIVE POWER SUPPLY
*                       |   |   |   |   OUTPUT
*                       |   |   |   |   |   REFERENCE
*                       |   |   |   |   |   |   GAIN SENSE 1
*                       |   |   |   |   |   |   |   GAIN SENSE 2
*                       |   |   |   |   |   |   |   |
.SUBCKT INA120E         1   2   3   4   5   8   9  10
*
** A1_120E SUB-CIRCUIT
* CONNECTIONS:          NON-INVERTING INPUT
*                       |   INVERTING INPUT
*                       |   |   POSITIVE POWER SUPPLY
*                       |   |   |   NEGATIVE POWER SUPPLY
*                       |   |   |   |   OUTPUT
*                       |   |   |   |   |
X1                      2   9   3   4  11   A1_120E
*
** A2_120E SUB-CIRCUIT
* CONNECTIONS:          NON-INVERTING INPUT
*                       |   INVERTING INPUT
*                       |   |   POSITIVE POWER SUPPLY
*                       |   |   |   NEGATIVE POWER SUPPLY
*                       |   |   |   |   OUTPUT
*                       |   |   |   |   |
X2                      1  10   3   4  12   A2_120E
*
** A3_120E SUB-CIRCUIT
* CONNECTIONS:          NON-INVERTING INPUT
*                       |   INVERTING INPUT
*                       |   |   POSITIVE POWER SUPPLY
*                       |   |   |   NEGATIVE POWER SUPPLY
*                       |   |   |   |   OUTPUT
*                       |   |   |   |   |
X3                     14  13   3   4   5   A3_120E
*
R1    11  13  10.0000K
R2    13   5   9.9995K
C2    13   5   1.0000PF
R3    12  14  10.0000K
R4    14   8  10.0000K
R1FB   9  11  20.0000K
CC1    9  11  10.0000PF
R2FB  10  12  20.0000K
CC2   10  12  10.0000PF
.ENDS
*
.SUBCKT A1_120E INP INN 3 4 5
*
C1   11 12 16.38E-12
C2    6  7 90.00E-12
DC    5 53 DX
DE   54  5 DX
DLP  90 91 DX
DLN  92 90 DX
DP    4  3 DX
EGND 99  0 POLY(2) 3 0 4 0 0 .5 .5
FB    7 99 POLY(5) VB VC VE VLP VLN 0 23.58E6 -20E6 20E6 20E6 -20E6
GA    6  0 11 12 1.696E-3
GCM   0  6 10 99 3.385E-9
IEE  10  4 DC 108.0E-6
HLIM 90  0 VLIM 1K
Q1   11  2 13 QX
Q2   12  1 14 QX
R2    6  9 100.0E3
RC1   3 11 589.5
RC2   3 12 589.5
RE1  13 10 110.5
RE2  14 10 110.5
REE  10 99 1.852E6
RO1   8  5 25
RO2   7 99 25
*  RP    3  4 33.63E3
VB    9  0 DC 0
VC    3 53 DC 2.200
VE   54  4 DC 2.200
VLIM  7  8 DC 0
VLP  91  0 DC 20
VLN   0 92 DC 20
*
* A1_120 "E" - ENHANCEMENTS
*
* OUTPUT SUPPLY MIRROR
FQ3   0 20 POLY(1) VLIM 0  1
DQ1  20 21 DX
DQ2  22 20 DX
VQ1  21  0 0
VQ2  22  0 0
FQ1   3  0 POLY(1) VQ1  8.72E-4  1
FQ2   0  4 POLY(1) VQ2  8.72E-4 -1
* QUIESCIENT CURRENT
RQ    3  4  1.5E6
* DIFF INPUT CAPACITANCE
CDIF  1  2  3.0E-12
* COMMON MODE INPUT CAPACITANCE
C1CM  1  99 1.5E-12
C2CM  2  99 1.5E-12
* INPUT PROTECTION
R1IN  INP 1  1000
D1IN   1  2  DX
R2IN  INN 2  1000
D2IN   2  1  DX
*
.MODEL DX D(IS=800.0E-18)
.MODEL QX NPN(IS=800.0E-18 BF=7.714E3)
.ENDS
*
.SUBCKT A2_120E 100 101 3 4 5
*INP=100 INN=101
C1   11 12 16.38E-12
C2    6  7 90.00E-12
DC    5 53 DX
DE   54  5 DX
DLP  90 91 DX
DLN  92 90 DX
DP    4  3 DX
EGND 99  0 POLY(2) 3 0 4 0 0 .5 .5
FB    7 99 POLY(5) VB VC VE VLP VLN 0 20.21E6 -20E6 20E6 20E6 -20E6
GA    6  0 11 12 1.979E-3
GCM   0  6 10 99 1.979E-9
IEE  10  4 DC 108.0E-6
HLIM 90  0 VLIM 1K
Q1   11  2 13 QX
Q2   12  1 14 QX
R2    6  9 100.0E3
RC1   3 11 505.3
RC2   3 12 505.3
RE1  13 10 26.28
RE2  14 10 26.28
REE  10 99 1.852E6
RO1   8  5 25
RO2   7 99 25
*  RP    3  4 33.63E3
VB    9  0 DC 0
VC    3 53 DC 2.200
VE   54  4 DC 2.200
VLIM  7  8 DC 0
VLP  91  0 DC 20
VLN   0 92 DC 20
*
* A2_120 "E" - ENHANCEMENTS
*
* OUTPUT SUPPLY MIRROR
FQ3   0 20 POLY(1) VLIM 0  1
DQ1  20 21 DX
DQ2  22 20 DX
VQ1  21  0 0
VQ2  22  0 0
FQ1   3  0 POLY(1) VQ1  8.72E-4  1
FQ2   0  4 POLY(1) VQ2  8.72E-4 -1
* QUIESCIENT CURRENT
RQ    3  4  1.5E6
* DIFF INPUT CAPACITANCE
CDIF  1  2  3.0E-12
* COMMON MODE INPUT CAPACITANCE
C1CM  1  99 1.5E-12
C2CM  2  99 1.5E-12
* INPUT PROTECTION
R1IN  100 1  1000
D1IN   1  2  DX
R2IN  101 2  1000
D2IN   2  1  DX
*
.MODEL DX D(IS=800.0E-18)
.MODEL QX NPN(IS=800.0E-18 BF=7.714E3)
.ENDS
*
.SUBCKT A3_120E  1 2 3 4 5
*
C1   11 12 17.32E-12
C2    6  7 20.00E-12
DC    5 53 DX
DE   54  5 DX
DLP  90 91 DX
DLN  92 90 DX
DP    4  3 DX
EGND 99  0 POLY(2) 3 0 4 0 0 .5 .5
FB    7 99 POLY(5) VB VC VE VLP VLN 0 159.2E6 -20E6 20E6 20E6 -20E6
GA    6  0 11 12 251.3E-6
GCM   0  6 10 99 251.3E-12
ISS   3 10 DC 20.00E-6
HLIM 90  0 VLIM 1K
J1   11  2 10 JX
J2   12  1 10 JX
R2    6  9 100.0E3
RD1   4 11 3.979E3
RD2   4 12 3.979E3
RO1   8  5 25
RO2   7 99 25
*  RP    3  4 30.00E3
RSS  10 99 10.00E6
VB    9  0 DC 0
VC    3 53 DC 2.200
VE   54  4 DC 2.200
VLIM  7  8 DC 0
VLP  91  0 DC 24
VLN   0 92 DC 24
*
* A3_120 "E" - ENHANCEMENTS
*
* OUTPUT SUPPLY MIRROR
FQ3   0 20 POLY(1) VLIM 0  1
DQ1  20 21 DX
DQ2  22 20 DX
VQ1  21  0 0
VQ2  22  0 0
FQ1   3  0 POLY(1) VQ1  9.60E-4  1
FQ2   0  4 POLY(1) VQ2  9.60E-4 -1
* QUIESCIENT CURRENT
RQ    3  4  1.5E6
* DIFF INPUT CAPACITANCE
CDIF  1  2  3.0E-12
* COMMON MODE INPUT CAPACITANCE
C1CM  1  99 1.5E-12
C2CM  2  99 1.5E-12
*
.MODEL DX D(IS=800.0E-18)
.MODEL JX PJF(IS=10.00E-12 BETA=1.579E-3 VTO=-1)
.ENDS
**********
*SRC=LM324N;LM324N;Opamps;NAT-"LMxxx";Large DC Gain, 100dB
*SYM=NATOPAMP
* LM324 Low Power Quad OPERATIONAL AMPLIFIER MACRO-MODEL
*
* connections:      non-inverting input
*                   |   inverting input
*                   |   |   positive power supply
*                   |   |   |   negative power supply
*                   |   |   |   |   output
*                   |   |   |   |   |
*                   |   |   |   |   |
.SUBCKT LM324N      1   2  99  50  28
*
* Features:
*  Eliminates need for dual supplies
*  Large DC voltage gain =             100dB
*  High bandwidth =                     1MHz
*  Low input offset voltage =            2mV
*  Wide supply range =        +-1.5V to +-16V
*
* NOTE: Model is for single device only and simulated
*       supply current is 1/4 of total device current.
*       Output crossover distortion with dual supplies
*       is not modeled.
*
IOS 2 1 5N
*^Input offset current
R1 1 3 500K
R2 3 2 500K
I1 99 4 100U
R3 5 50 517
R4 6 50 517
Q1 5 2 4 QX
Q2 6 7 4 QX
*Fp2=1.2 MHz
C4 5 6 128.27P
*
I2 99 50 75U
*^Quiescent supply current
EOS 7 1 POLY(1) 16 49 2E-3 1
*Input offset voltage.^
R8 99 49 60K
R9 49 50 60K
*
V2 99 8 1.63
D1 9 8 DX
D2 10 9 DX
V3 10 50 .635
*
EH 99 98 99 49 1
G1 98 9 POLY(1) 5 6 0 9.8772E-4 0 .3459
*Fp1=7.86 Hz
R5 98 9 101.2433MEG
C3 98 9 200P
*
*Fp=2 MHz
G3 98 15 9 49 1E-6
R12 98 15 1MEG
C5 98 15 7.9577E-14
*
*Fpcm=10 KHz
G4 98 16 3 49 5.6234E-8               
L2 98 17 15.9M
R13 17 16 1K
*
F6 50 99 POLY(1) V6 300U 1
E1 99 23 99 15 1
R16 24 23 17.5
D5 26 24 DX
V6 26 22 .63V
R17 23 25 17.5
D6 25 27 DX
V7 22 27 .63V
V5 22 21 0.27V
D4 21 15 DX
V4 20 22 0.27V
D3 15 20 DX
L3 22 28 500P
RL3 22 28 100K
*
.MODEL DX D(IS=1E-15)
.MODEL QX PNP(BF=1.111E3)
.ENDS
*********
*SRC=LMC660N;LMC660N;Opamps;NAT-"LMxxx";CMOS Input
*SYM=NATOPAMP
* LMC660AM/AI/C CMOS Quad OP-AMP MACRO-MODEL
*
* connections:      non-inverting input
*                   |   inverting input
*                   |   |   positive power supply
*                   |   |   |   negative power supply
*                   |   |   |   |   output
*                   |   |   |   |   |
*                   |   |   |   |   |
.SUBCKT LMC660N     1   2  99  50  41
*
* Features:
*  Operates from single supply
*  Rail-to-rail output swing
*  Ultra low input current =             40fA
*  Slew rate =                        1.1V/uS
*
* NOTE: Model is for single device only and simulated
*       supply current is 1/4 of total device current.
*       Noise is not modeled.
*       Asymmetrical gain is not modeled.
*
I1  99  4 20U
M1   5  2 4 99 MOSFET
R3   5 50 5.2696K
M2   6  7 4 99 MOSFET
R4   6 50 5.2696K
*Fp2=7.5 MHz
C4   5  6 2.0135P
CI1  1  0 2P
CI2  2  0 2P
DP1  1 99 DA
DP2 50  1 DX
DP3  2 99 DX
DP4 50  2 DB
G0  98  9 6 5 23.721E-3
R0  98  9 1K
*For accurate Ib , set GMIN<=1E-16 on .OPTIONS line.
*
I2  99 50 305U
*^Quiescent current                   
EOS  7  1 POLY(1) 16 49 1E-3 1
*Offset voltage.........^
R8  99 49 100K
R9  49 50 100K
*
*Fp=13.3 MHz
G3  98 15 9 49 1E-3
R12 98 15 1K
C5  98 15 11.967P
*
*Fp=1 MHz, Fz= 2.6MHz
G5  98 18 15 49 1E-3
R14 98 18 1K
R15 98 19 625
C6  19 18 97.94P
*
*Fpcm=20 KHz
G4  98 16 POLY(2) 1 49 2 49 0 3.5397E-8 3.5397E-8
L2  98 17 7.958M
R13 17 16 1K
*
EH  99 98 99 49 1
G1  98 29 18 49 8.253E-6
R5  98 29 510.8MEG
D1   8 99 DX
V2   8 29 1.363
D2  50 10 DX
V3  29 10 1.363
F6  99 50 VA7 1
*^Dynamic supply current
F5  99 35 VA8 1
D3  36 35 DX
VA7 99 36 0
D4  35 99 DX
E1  99 37 99 49 1
VA8 37 38 0
G6  38 40 49 29 11.765E-3
R16 38 40 2.688K  
D5  30 99 DX
V4  30 40 .77
D6  50 31 DX
V5  40 31 .77
*Fp1=.5294 Hz
C3  29 39 18.182P
R6  39 40 1K
R17 40 41 47
*
.MODEL DA D(IS=5E-14)
.MODEL DB D(IS=4E-14)
.MODEL DX D(IS=1E-14)
.MODEL MOSFET PMOS(VTO=-2.35 KP=1.801E-3)
.ENDS
**********
*SRC=MC3403;MC3403;Opamps;Motorola;Low Power
*SYM=ADOPAMP
.SUBCKT MC3403 1 2 3 4 5
*MC3403 OPERATIONAL AMPLIFIER 
*
* CONNECTIONS:
*    1 -  NON-INVERTING INPUT
*    2 -  INVERTING INPUT
*    3 -  POSITIVE POWER SUPPLY
*    4 -  NEGATIVE POWER SUPPLY
*    5 -  OUTPUT
*
*
C1   11 12 5.750E-12
C2    6  7 12.50E-12
DC    5 53 DX
DE   54  5 DX
DLP  90 91 DX
DLN  92 90 DX
DP    4  3 DX
EGND 99  0 POLY(2) 3 0   4 0  0 .5 .5
FB    7 99 POLY(5) VB VC VE VLP VLN 0 45.39E6
+  -50E6 50E6 50E6 -50E6
GA    6  0 11 12 117.5E-6
GCM   0  6 10 99 3.716E-9
IEE   3 10 DC 7.000E-6
HLIM 90  0 VLIM 1K
Q1   11  2 13 QX
Q2   12  1 14 QX
R2    6  9 100.0E3
RC1   4 11 8.511E3
RC2   4 12 8.511E3
RE1  13 10 634.9
RE2  14 10 634.9
REE  10 99 28.57E6
RO1   8  5 37.50
RO2   7 99 37.50
RP    3  4 18.83E3
VB    9  0 DC 0
VC    3 53 DC 2.740
VE   54  4 DC 2.740
VLIM  7  8 DC 0
VLP  91  0 DC 20
VLN   0 92 DC 20
.MODEL DX D(IS=800.0E-18)
.MODEL QX PNP(IS=800.0E-18 BF=16.50)
.ENDS
**********
*SRC=AD844;AD844;Opamps;AD-"ADxxx";2000V/us, w/Comp
*SYM=ADCOMP
* AD844 SPICE Macro-model                   7/91, Rev. A   
*                                           JCB / PMI
*
* Node assignments
*              non-inverting input
*              | inverting input
*              | | positive supply
*              | | |  negative supply
*              | | |  |  output
*              | | |  |  |  compensation node
*              | | |  |  |  |
.SUBCKT AD844  1 2 99 50 28 12
*
* INPUT STAGE
*
R1   99  8     1E3
R2   10 50     1E3
V1   99  9     11
D1   9   8     DX
V2   11 50     11
D2   10 11     DX
I1   99  5     258E-6
I2   4  50     258E-6
Q1   50  3  5  QP
Q2   99  3  4  QN
Q3   8   6 30  QN
Q4   10  7 30  QP
R3   5   6     300E3
R4   4   7     300E3
*C1   99  6     8.8E-15
*C2   50  7     8.8E-15
*
* INPUT ERROR SOURCES
* 
GB1  99  1     POLY(1)  1  22  150E-9  90E-9
GB2  99 30     POLY(1)  1  22  200E-9  90E-9
VOS  3   1     50E-6
LS1  30  2     1E-8
CS1  99  2     1E-12
CS2  50  2     1E-12
*
EREF 97  0     22  0  1
*
* GAIN STAGE & DOMINANT POLE
*
R5   12 97     3E6
C3   12 97     5.5E-12
G1   97 12     99  8  1E-3
G2   12 97     10 50  1E-3
V3   99 13     4.3
V4   14 50     4.3
D3   12 13     DX
D4   14 12     DX
*
* POLE AT 70 MHZ
*
R8  17 97     1E6
C4  17 97     3.18E-15
G4  97 17     12 22  1E-6
*
* POLE AT 300 MHZ
*
R12 21 97     1E6
C8  21 97     0.318E-15
G8  97 21     17 22  1E-6
*
* OUTPUT STAGE
*
ISY 99 50     5.1E-3
R13 22 99     16.7E3
R14 22 50     16.7E3
R15 27 99     30
R16 27 50     30
L2  27 28     6E-8
G9  25 50     21 27  33.33E-3
G10 26 50     27 21  33.33E-3
G11 27 99     99 21  33.33E-3
G12 50 27     21 50  33.33E-3
V5  23 27     0.5
V6  27 24     0.5
D5  21 23     DX
D6  24 21     DX
D7  99 25     DX
D8  99 26     DX
D9  50 25     DY
D10 50 26     DY
*
* MODELS USED
*
.MODEL QN   NPN(BF=1E9 IS=1E-15)
.MODEL QP   PNP(BF=1E9 IS=1E-15)
.MODEL DX   D(IS=1E-15)
.MODEL DY   D(IS=1E-15 BV=50)
.ENDS
**********
*SRC=AD845;AD845;Opamps;AD-"ADxxx";FET Input, Precision
*SYM=ADOPAMP
* AD845 SPICE Macro-model                 12/90, Rev. A   
*                                          AAG / PMI
*
* Node assignments
*              non-inverting input
*              | inverting input
*              | | positive supply
*              | | |   negative supply
*              | | |   |   output
*              | | |   |   |
.SUBCKT AD845  1 2 100 101 36
*
* INPUT STAGE & POLE AT 170 MHz
*
R1  1  3  5E10
R2  2  3  5E10
R3  100  5  820.39
R4  100  6  820.39
CIN  1  2  4E-12
C2  5  6  570.59E-15
I1  4  101  1E-3
IOS  1  2  DC  7.5E-12
EOS  7  1  POLY(1)  13  14  100E-6  1
J1  5  2  4  JX
J2  6  7  4  JX
*
* GAIN STAGE & DOMINANT POLE AT 77.6 HZ
*
EREF  8  0  14  0  1
G1  8  9  5  6  1.2189E-3
R5  9  8  205.1E6
C3  9  8  10E-12
V1  100  10  DC  2.8125
D1  9  10  DX
V2  11  101  DC  2.8125
D2  11  9  DX
*
* COMMON-MODE GAIN NETWORK WITH ZERO AT 10 KHZ
*
ECM  12  8  3  14  3.1623
RCM1  12  13  1E6
RCM2  13  8  1
CCM  12  13  15.915E-12
*
*  VIRTUAL NODE
*
RVN1  100  14  17.33E3
RVN2  14  101  17.33E3
*
* POLE STAGE AT 170 MHz
*
GP1  8  15  9  14  1E-6
RP1  15  8  1E6
CP1  15  8  0.93621E-15
*
* NEGATIVE ZERO STAGE AT 46 MHz
*
EZ1  16  8  15  14  1E6
RZ1  16  17  -1
RZ2  17  8  -1E-6
CZ1  16  17  3.4599E-9
*
* POLE STAGE AT 170 MHz
*
GP2  8  18  17  14  1E-6
RP2  18  8  1E6
CP2  18  8  0.93621E-15
*
* OUTPUT STAGE
*
IDC  100  101  DC  8.134E-3
VX  18  30
V3  32  35  DC  0.15
D3  30  32  DX
V4  35  33  DC  0.15
D4  33  30  DX
D5  100  31  DX
GO1  31  101  30  35  33.33E-3
D6  101  31  DY
D7  100  34  DX
GO2  34  101  35  30  33.33E-3
D8  101  34  DY
RO1  100  35  30
GO3  35  100  100  30  33.33E-3
RO2  35  101  30
GO4  101  35  30  101  33.33E-3
LO  35  36  45E-9
*
* MODELS USED
*
.MODEL JX NJF(VTO=-2 BETA=742.9E-6 IS=2.5E-10)
.MODEL DX D(IS=1E-15)
.MODEL DY D(IS=1E-15 BV=50)
.ENDS
**********
*SRC=OP200A;OP200A;Opamps;AD-"OPxxx";Low VOS 25uV
*SYM=ADOPAMP
* OP200 SPICE Macro-model                 12/90, Rev. B   
*                                          AAG / PMI
* Revision History:
*     Re-ordered subcircuit call out nodes to put the 
*     output node last.
*     Changed Ios from 50E-12 to 25E-12
*
* Node assignments
*              non-inverting input
*              | inverting input
*              | | positive supply
*              | | |  negative supply
*              | | |  |  output
*              | | |  |  |
.SUBCKT OP200A 1 2 99 50 25
*
* INPUT STAGE & POLE AT 4.5 MHZ
*
RI1 2  31     1E3
RI2 1  32     1E3
R1  31  3     5E5
R2  32  3     5E5
R3  5  99     516
R4  6  99     516
CIN 32 31     3.2E-12
C2  5   6     34.271E-12
I1  4  50     0.1E-3
IOS 32 31     25E-12
EOS 7  32     POLY(1)  13 19  25E-6  1
Q1  5  31  4  QX
Q2  6   7  4  QX
D21 31  7     DX
D22 7  31     DX
*
* FIRST GAIN STAGE & DOMINANT POLE AT 0.125 HZ
*
R5  8  99     1.9098E9
R6  8  50     1.9098E9
C3  8  99     666.67E-12
C4  8  50     666.67E-12
G1  99  8     POLY(1)  5  6  200E-6  1.938E-3
G2  8  50     POLY(1)  6  5  200E-6  1.938E-3
D1  8  99     DX
D2  50  8     DX
*
* SECOND GAIN STAGE & POLE AT 4.5 MHZ
*
R7  10 99     1E6
R8  10 50     1E6
C5  10 99     35.368E-15
C6  10 50     35.368E-15
G3  99 10     8  19  1.3509E-6
G4  10 50     19  8  1.3509E-6
V2  99  9     2.7
V3  11 50     2.7
D3  10  9     DX
D4  11 10     DX
*
* POLE AT 4.5 MHZ
*
R9  12 99     1E6
R10 12 50     1E6
C7  12 99     35.368E-15
C8  12 50     35.368E-15
G5  99 12     10 19  1E-6
G6  12 50     19 10  1E-6
*
* COMMON-MODE GAIN NETWORK WITH ZERO AT 20 HZ
*
R11 13 14     1E6
R12 13 15     1E6
L1  14 99     7.9578E3
L2  15 50     7.9578E3
G7  99 13     3  19  1.778E-13
G8  13 50     19  3  1.778E-13
D5  13 99     DX
D6  50 13     DX
*
* POLE AT 4.5 MHZ
*
R14 18 99     1E6
R15 18 50     1E6
C9  18 99     35.368E-15
C10 18 50     35.368E-15
G9  99 18     12 19  1E-6
G10 18 50     19 12  1E-6
*
* OUTPUT STAGE
*
R16 19 99     62.22E3
R17 19 50     62.22E3
R18 24 99     250
R19 24 50     250
L3  24 25     7E-7
G11 22 50     18 24  4E-3
G12 23 50     24 18  4E-3
G13 24 99     99 18  4E-3
G14 50 24     18 50  4E-3
V6  20 24     3
V7  24 21     3
D7  18 20     DX
D8  21 18     DX
D9  99 22     DX
D10 99 23     DX
D11 50 22     DY
D12 50 23     DY
*
* MODELS USED
*
.MODEL QX NPN(BF=500000)
.MODEL DX   D(IS=1E-15)
.MODEL DY   D(IS=1E-15 BV=50)
.ENDS
**********
*SRC=OP215A;OP215A;Opamps;AD-"OPxxx";JFET Input, Fast 18V/us
*SYM=ADOPAMP
* OP215 SPICE Macro-model                 10/90, Rev. A
*                                          AN / PMI
*
*
* Node assignments
*                non-inverting input
*                | inverting input
*                | | positive supply
*                | | |  negative supply
*                | | |  |  output
*                | | |  |  |
.SUBCKT OP215A   1 2 99 50 26
*
* INPUT STAGE & POLE AT 150 MHZ
*
R1   1  3     5E11
R2   2  3     5E11
R3   5 50     568.5
R4   6 50     568.5
CIN  1  2     3E-12
C2   5  6     9.332E-13
I1  99  4     1E-3
IOS  1  2     1.5E-12
EOS  7  1     POLY(1)  18 20  200E-6  1
J1   5  2  4  JX
J2   6  7  4  JX
*
EREF 98 0    20  0  1
*
* SECOND STAGE & POLE AT 10.0 HZ
*
R5   9 98     284.2E6
C3   9 98     56E-12
G1  98  9     5  6  1.759E-3
V2  99  8     2.35
V3  10 50     2.35
D1   9  8     DX
D2  10  9     DX
*
* NEGATIVE ZERO AT 30 MHZ
*
R6  11 12    -1E6
R7  12 98    -1
E1  11 98    9  98  1E6
C4  11 12    5.305E-15
*
* POLE AT 200 MHZ
*
R8  13 98     1E6
C5  13 98     7.95E-16
G2  98 13     12 20  1E-6
*
* POLE AT 100 MHZ
*
R9  14 98     1E6
C6  14 98     1.59E-15
G3  98 14     13 20  1E-6
*
* POLE AT 150 MHZ
*
R10 15 98     1E6
C7  15 98     1.061E-15
G4  98 15     14 20  1E-6
*
* POLE AT 100 MHZ
*
R11 16 98     1E6
C8  16 98     1.59E-15
G5  98 16     15 20  1E-6
*
* COMMON-MODE GAIN NETWORK WITH ZERO AT 400 HZ
*
R12 17 18     1E6
R13 18 98     1
C9  17 18     397.9E-12
E2  17 98     3  20  10
*
* POLE AT 100 MHZ
*
R14 19 98     1E6
C10 19 98     1.59E-15
G6  98 19     16 20  1E-6
*
* OUTPUT STAGE
*
R15 20 99     135E3
R16 20 50     135E3
ISY 99 50     4.9E-3
R17 25 99     172.78
R18 25 50     172.78
L2  25 26     4E-11
G7  23 50     19 25  5.79E-3
G8  24 50     25 19  5.79E-3
G9  25 99     99 19  5.79E-3
G10 50 25     19 50  5.79E-3
V4  21 25     2.0
V5  25 22     2.0
D3  19 21     DX
D4  22 19     DX
D5  99 23     DX
D6  99 24     DX
D7  50 23     DY
D8  50 24     DY
*
* MODELS USED
*
.MODEL JX PJF(BETA=1.547E-3  VTO=-2.000  IS=15E-12)
.MODEL DX   D(IS=1E-15)
.MODEL DY   D(IS=1E-15 BV=50)
.ENDS
**********
*SRC=AD711;AD711;Opamps;AD-"ADxxx";FET Input, Precision
*SYM=ADOPAMP
* AD711 SPICE Macro-model                  3/91, Rev. B
*           JLW / PMI
*
* Revision History:
*     Corrected VOS to be 0.1mV
*
* This version of the AD711 model simulates the typical 
* parameters corresponding to the device data sheet.
*
* connections: non-inverting input 
*              |  inverting input  
*              |  |  positive supply
*              |  |  |  negative supply
*              |  |  |  |  output
*              |  |  |  |  |
.SUBCKT AD711 13 15 12 16 14
* 
VOS 15 8 DC 0.1E-3
EC 9 0 14 0 1
C1 6 7 .5E-12
RP 16 12 12E3
GB 11 0  3 0  1.67E3
RD1 6 16 16E3
RD2 7 16 16E3
ISS 12 1 DC 100E-6
CCI 3 11 150E-12
GCM 0 3  0 1  1.76E-9
GA 3 0  7 6  2.3ME-3
RE 1 0 2.5E6
RGM 3 0 1.69E3
VC 12 2 DC 2.8
VE 10 16 DC 2.8
RO1 11 14 25
CE 1 0 2E-12
RO2 0 11 30
RS1 1 4 5.77E3
RS2 1 5 5.77E3
J1 6 13 4 FET
J2 7 8 5 FET
DC 14 2 DIODE
DE 10 14 DIODE
DP 16 12 DIODE
D1 9 11 DIODE
D2 11 9 DIODE
IOS 15 13 5E-12
.MODEL DIODE D
.MODEL FET PJF(VTO=-1 BETA=1E-3 IS=15E-12)
.ENDS
**********
*SRC=AD734;AD734;Multipliers;Analog Devices;4 Quadrant, Accurate .1% err. 
*SYM=ADMUL
* Node assignments
*   X1
*   |   X2
*   |   |   UO
*   |   |   |   U1
*   |   |   |   |   U2
*   |   |   |   |   |   Y1
*   |   |   |   |   |   |   Y2
*   |   |   |   |   |   |   |   VN
*   |   |   |   |   |   |   |   |   ER
*   |   |   |   |   |   |   |   |   |   Z2
*   |   |   |   |   |   |   |   |   |   |   Z1 
*   |   |   |   |   |   |   |   |   |   |   |   W
*   |   |   |   |   |   |   |   |   |   |   |   |   DD
*   |   |   |   |   |   |   |   |   |   |   |   |   |   VP 
*   |   |   |   |   |   |   |   |   |   |   |   |   |   |
.SUBCKT AD734 10 11 49 50 51 20 21 200 58 31 30 77 54 100
*
EREF 300 0 POLY(2) 100 0 200 0 (0,0.5,0.5)
*
* X INPUT STAGE & POLE AT 40 MHz
*
CINX 10 11 2E-12
IBX1 10 0 DC 50E-9
IBX2 11 0 DC 50E-9
EOSX 12 10 POLY(1) 18 300 15E-3 1
RX1 12 13 25E3
RX2 13 11 25E3
*
GX1 300 14 12 11 1E-6
RX3 14 300 9.995E5
CX1 14 300 3.9809E-15
VX1 100 15 DC 3.1875
DX1 14 15 DX
VX2 16 200 DC 3.1875
DX2 16 14 DX
*
* X INPUT STAGE COMMON-MODE REJECTION AND ZERO 40 kHz
*
ECMX 17 300 13 300 56.234
RCMX1 17 18 1E6
CCMX 17 18 3.9789E-12
RCMX2 18 300 1
*
* Y INPUT STAGE & POLE AT 40 MHz
*
CINY 20 21 2E-12
IBY1 20 0 DC 50E-9
IBY2 21 0 DC 50E-9
EOSY 22 20 POLY(1) 28 300 10E-3 1
RY1 22 23 25E3
RY2 23 21 25E3
*
GY1 300 24 22 21 1E-6
RY3 24 300 9.995E5
CY1 24 300 3.9809E-15
VY1 100 25 DC 3.1875
DY1 24 25 DX
VY2 26 200 DC 3.1875
DY2 26 24 DX
*
* Y INPUT STAGE COMMON-MODE REJECTION AND ZERO 80 kHz
*
ECMY 27 300 23 300 56.234
RCMY1 27 28 1E6
CCMY 27 28 1.9895E-12
RCMY2 28 300 1
*
* Z INPUT STAGE & POLE AT 40 MHz
*
CINZ 30 31 2E-12
IBZ1 30 0 DC 50E-9
IBZ2 31 0 DC 50E-9
EOSZ 32 30 POLY(1) 38 300 20E-3 1
RZ1 32 33 25E3
RZ2 33 31 25E3
*
GZ1 300 34 32 31 1E-6
RZ3 34 300 1E6
CZ1 34 300 3.9789E-15
VZ1 100 35 DC 3.1875
DZ1 34 35 DX
VZ2 36 200 DC 3.1875
DZ2 36 34 DX
*
* Z INPUT STAGE COMMON-MODE REJECTION AND ZERO 40 kHz
*
ECMZ 37 300 33 300 56.234
RCMZ1 37 38 1E6
CCMZ 37 38 3.9789E-12
RCMZ2 38 300 1
*
* DENOMINATOR CONTROL & INTERNAL REFERENCE
*
QU1 100 49 50 QNU
RU1 50 51 28E3
*
VU 100 52
QU2 52 0 53 QNU
RU2 53 54 0.001
IU 53 200 DC 10E-6
FU1 300 55 VU 1.01
RU3 55 300 1E6
*
VR1 57 200 DC 8
QR 59 57 58 QPU
RR 57 58 1E5
VR2 59 200
FU4 300 56 VR2 1
RU4 56 300 28E3
*
EU 60 300 POLY(3) 50 51 55 300 56 300 (0,1.0101,1,1.0101)
RU5 60 300 1E6
*
* 250 MHz MULTIPLIER CORE
*
EXY 46 300 POLY(2) 14 300 24 300 (0,0,0,0,1)
RXY 46 300 1E6
GXY 300 47 46 300 1
GU 47 300 POLY(2) 60 300 47 300 (0,0,0,0,1)
RU 47 300 1E12
CU 47 300 6.65E-9
EW 48 300 POLY(2) 47 300 34 300 (0,1,-1)
RW 48 300 1E6
*
* OUTPUT AMP BUFFER
*
GW 64 300 48 300 1
QW1 100 0 61 QNW
QW2 200 0 62 QPW
QW3 63 62 64 QNW
QW4 65 61 64 QPW
RW1 100 63 1
RW2 65 200 1
IW1 100 62 DC 100E-6
IW2 61 200 DC 100E-6
VW1 100 66 DC 10
DW1 66 63 DX
VW2 67 200 DC 10
DW2 65 67 DX
*
* OUTPUT AMP GAIN STAGE
*
GW1 300 68 100 63 1
GW2 68 300 65 200 1
RW3 68 300 1.38E3
CW1 68 300 19E-9
VW3 100 69 DC 3.8
DW3 68 69 DX
VW4 70 200 DC 3.8
DW4 70 68 DX
*
* TRANSIENT SUPPLY CURRENT COMPENSATION
*
DCC1 80 100 DX
GCC 0 80 48 300 1
DCC2 0 80 DX
DEE1 81 0 DX
GEE 81 0 300 48 1
DEE2 200 81 DX
*
* POLE AT 17.5 MHz
*
GW3 300 71 68 300 1E-6
RW4 71 300 1E6
CW2 71 300 9.0946E-15
*
IDC 100 200 DC 4.0125E-3
RDC1 100 78 3.2E3
RDC2 78 200 3.2E3
DO1 100 72 DX
GO1 72 200 76 71 25E-3
DO2 200 72 DY
DO3 100 73 DX
GO2 73 200 71 76 25E-3
DO4 200 73 DY
VSC1 74 76 DC 0.4
DSC1 71 74 DX
VSC2 76 75 DC 0.4
DSC2 75 71 DX
GO3 76 100 100 71 25E-3
GO4 200 76 71 200 25E-3
RO1 100 76 40
RO2 76 200 40
LO 76 77 100E-9
*
* MODELS USED
*
.MODEL QNU NPN (BF=100 IS=1E-16)