*
*
*PSPICE-SIMULATIONSMODELL FÜR HEISSLEITER
*    
*SIEMENS MATSUSHITA COMPONENTS OHG DEUTSCHLANDSBERG   
*
*"NTC.LIB" Modellversion 1.0  FEBRUAR 1998
*
*****************************************************************
.subckt NTC 1 2 Params:B0=1 B1=1 B2=1 B3=0 B4=0 R25=10 
+ CTH=1 GTH0=1 GTH1=1 T=1
+ TK = 273.15
*****************************************************************
*
Gthem 1 4  Value={V(1,4)/(R25*(T)*(exp((((B4/(V(3)+TK+TEMP)+B3)/(V(3)+TK+TEMP)+B2)/(V(3)+TK+TEMP)+B1)/(V(3)+TK+TEMP)+B0)))}
*
RP 1 4 1T
RS 4 2 1n
*
Gtmp1 0 3  Value={V(1,4)*V(1,4)/(R25*(T)*(exp((((B4/(V(3)+TK+TEMP)+B3)/(V(3)+TK+TEMP)+B2)/(V(3)+TK+TEMP)+B1)/(V(3)+TK+TEMP)+B0)))}
C_par 3 0 {CTH}
R_par 3 0 1T
Gpar  3 0 Value={V(3)*(GTH0+(GTH1*(V(3)+TEMP)))}
*
.ends 
**********************************************************
*
*
*
*
*
*
*
* ===================================
* Typen - Update vom Februar 1998
* ===================================
*
*
*
*
* Typen-Modelle
* =============
*
*
* Typenmodell für C619/4.7k :
* ---------------------------
.SUBCKT C619_4700 1 2  PARAMS: TOL=0
X1 1 2 NTC Params: 
+ B0=-9.83085430743211 
+ B1=7716.66739328665 
+ B2=-1419289.76278818 
+ B3=216177153.122501 
+ B4=-14030842059.0076 
+ R25=4700 
+ T={1+TOL/100} 
+ CTH=0.0012 GTH0=0.0034586 GTH1=3.11E-6 TK=273.15
.ENDS
*
*
* Typenmodell für C619/10k :
* --------------------------
.SUBCKT C619_10000 1 2  PARAMS: TOL=0
X1 1 2 NTC Params: 
+ B0=-11.9847664230072 
+ B1=3069.94526980822 
+ B2=418296.198088036 
+ B3=-102412371.979498 
+ B4=6690146322.502 
+ R25=10000 
+ T={1+TOL/100} 
+ CTH=0.0012 GTH0=0.0034586 GTH1=3.11E-6 TK=273.15
.ENDS
*
*
* Typenmodell für C619/22k :
* --------------------------
.SUBCKT C619_22000 1 2  PARAMS: TOL=0
X1 1 2 NTC Params: 
+ B0=-13.259578306489 
+ B1=4661.90110754562 
+ B2=-361729.025725119 
+ B3=69407497.3353788 
+ B4=-7291623710.76263 
+ R25=22000 
+ T={1+TOL/100} 
+ CTH=0.0012 GTH0=0.0034586 GTH1=3.11E-6 TK=273.15
.ENDS
*
*
* Typenmodell für C619/47k :
* --------------------------
.SUBCKT C619_47000 1 2  PARAMS: TOL=0
X1 1 2 NTC Params: 
+ B0=-16.1431695445133 
+ B1=7091.52492551577 
+ B2=-1286728.55012098 
+ B3=246295702.783567 
+ B4=-19425103001.548 
+ R25=47000 
+ T={1+TOL/100} 
+ CTH=0.0012 GTH0=0.0034586 GTH1=3.11E-6 TK=273.15
.ENDS
*
*
* Typenmodell für C620/2.2k :
* ---------------------------
.SUBCKT C620_2200 1 2  PARAMS: TOL=0
X1 1 2 NTC Params: 
+ B0=-13.9483255930765 
+ B1=6898.07413369222 
+ B2=-1733642.600047 
+ B3=384164558.827643 
+ B4=-33012543828.423 
+ R25=2200 
+ T={1+TOL/100} 
+ CTH=0.0031 GTH0=0.0036935 GTH1=1.717E-6 TK=273.15
.ENDS
*
*
* Typenmodell für C620/4.7k :
* ---------------------------
.SUBCKT C620_4700 1 2  PARAMS: TOL=0
X1 1 2 NTC Params: 
+ B0=-15.5627602881962 
+ B1=7823.68874357333 
+ B2=-1945000.55419764 
+ B3=412842066.511181 
+ B4=-34574852941.9769 
+ R25=4700 
+ T={1+TOL/100} 
+ CTH=0.0031 GTH0=0.0036935 GTH1=1.717E-6 TK=273.15
.ENDS
*
*
* Typenmodell für C620/10k :
* --------------------------
.SUBCKT C620_10000 1 2  PARAMS: TOL=0
X1 1 2 NTC Params: 
+ B0=-13.8712479437673 
+ B1=4659.14340838048 
+ B2=-165829.733275238 
+ B3=3843618.13628143 
+ B4=-280445179.724124 
+ R25=10000 
+ T={1+TOL/100} 
+ CTH=0.0031 GTH0=0.0036935 GTH1=1.717E-6 TK=273.15
.ENDS
*
*
* Typenmodell für C620/22k :
* --------------------------
.SUBCKT C620_22000 1 2  PARAMS: TOL=0
X1 1 2 NTC Params: 
+ B0=-14.4184182732542 
+ B1=4699.05949699328 
+ B2=-127103.042753613 
+ B3=4999919.20330329 
+ B4=-799502544.166604 
+ R25=22000 
+ T={1+TOL/100} 
+ CTH=0.0031 GTH0=0.0036935 GTH1=1.717E-6 TK=273.15
.ENDS
*
*
* Typenmodell für C620/47k :
* --------------------------
.SUBCKT C620_47000 1 2  PARAMS: TOL=0
X1 1 2 NTC Params: 
+ B0=-14.924815306 
+ B1=4762.7449961 
+ B2=-38774.470032 
+ B3=-19600171.156 
+ B4=997318273 
+ R25=47000 
+ T={1+TOL/100} 
+ CTH=0.0031 GTH0=0.0036935 GTH1=1.717E-6 TK=273.15
.ENDS
*
*
* Typenmodell für C620/100k :
* ---------------------------
.SUBCKT C620_100000 1 2  PARAMS: TOL=0
X1 1 2 NTC Params: 
+ B0=-14.0953897242424 
+ B1=3082.962070953 
+ B2=1008750.730846 
+ B3=-279098232.76 
+ B4=23226481092.29 
+ R25=100000 
+ T={1+TOL/100} 
+ CTH=0.0031 GTH0=0.0036935 GTH1=1.717E-6 TK=273.15
.ENDS
*
*
* Typenmodell für C620/220k :
* ---------------------------
.SUBCKT C620_220000 1 2  PARAMS: TOL=0
X1 1 2 NTC Params: 
+ B0=-18.3241879607272 
+ B1=8508.04977392148 
+ B2=-1754860.38451858 
+ B3=346834873.031206 
+ B4=-28111094462.9847 
+ R25=220000 
+ T={1+TOL/100} 
+ CTH=0.0031 GTH0=0.0036935 GTH1=1.717E-6 TK=273.15
.ENDS
*
*
* Typenmodell für C621/2.2k :
* ---------------------------
.SUBCKT C621_2200 1 2  PARAMS: TOL=0
X1 1 2 NTC Params: 
+ B0=-12.2742891127253 
+ B1=4889.28354239859 
+ B2=-607237.777096104 
+ B3=94723102.6431878 
+ B4=-6853780568.70258 
+ R25=2200 
+ T={1+TOL/100} 
+ CTH=0.0054 GTH0=0.0048762 GTH1=3.102E-6 TK=273.15
.ENDS
*
*
* Typenmodell für C621/3.3k :
* ---------------------------
.SUBCKT C621_3300 1 2  PARAMS: TOL=0
X1 1 2 NTC Params: 
+ B0=-9.83085430743211 
+ B1=7716.66739328665 
+ B2=-1419289.76278818 
+ B3=216177153.122501 
+ B4=-14030842059.0076 
+ R25=3300 
+ T={1+TOL/100} 
+ CTH=0.0054 GTH0=0.0048762 GTH1=3.102E-6 TK=273.15
.ENDS
*
*
* Typenmodell für C621/4.7k :
* ---------------------------
.SUBCKT C621_4700 1 2  PARAMS: TOL=0
X1 1 2 NTC Params: 
+ B0=-9.83085430743211 
+ B1=7716.66739328665 
+ B2=-1419289.76278818 
+ B3=216177153.122501 
+ B4=-14030842059.0076 
+ R25=4700 
+ T={1+TOL/100} 
+ CTH=0.0054 GTH0=0.0048762 GTH1=3.102E-6 TK=273.15
.ENDS
*
*
* Typenmodell für C621/10k :
* --------------------------
.SUBCKT C621_10000 1 2  PARAMS: TOL=0
X1 1 2 NTC Params: 
+ B0=-11.9847664230072 
+ B1=3069.94526980822 
+ B2=418296.198088036 
+ B3=-102412371.979498 
+ B4=6690146322.502 
+ R25=10000 
+ T={1+TOL/100} 
+ CTH=0.0054 GTH0=0.0048762 GTH1=3.102E-6 TK=273.15
.ENDS
*
*
* Typenmodell für C621/15k :
* --------------------------
.SUBCKT C621_15000 1 2  PARAMS: TOL=0
X1 1 2 NTC Params: 
+ B0=-13.259578306489 
+ B1=4661.90110754562 
+ B2=-361729.025725119 
+ B3=69407497.3353788 
+ B4=-7291623710.76263 
+ R25=15000 
+ T={1+TOL/100} 
+ CTH=0.0054 GTH0=0.0048762 GTH1=3.102E-6 TK=273.15
.ENDS
*
*
* Typenmodell für C621/22k :
* --------------------------
.SUBCKT C621_22000 1 2  PARAMS: TOL=0
X1 1 2 NTC Params: 
+ B0=-13.259578306489 
+ B1=4661.90110754562 
+ B2=-361729.025725119 
+ B3=69407497.3353788 
+ B4=-7291623710.76263 
+ R25=22000 
+ T={1+TOL/100} 
+ CTH=0.0054 GTH0=0.0048762 GTH1=3.102E-6 TK=273.15
.ENDS
*
*
* Typenmodell für C621/33k :
* --------------------------
.SUBCKT C621_33000 1 2  PARAMS: TOL=0
X1 1 2 NTC Params: 
+ B0=-14.4184182732542 
+ B1=4699.05949699328 
+ B2=-127103.042753613 
+ B3=4999919.20330329 
+ B4=-799502544.166604 
+ R25=33000 
+ T={1+TOL/100} 
+ CTH=0.0054 GTH0=0.0048762 GTH1=3.102E-6 TK=273.15
.ENDS
*
*
* Typenmodell für C621/47k :
* --------------------------
.SUBCKT C621_47000 1 2  PARAMS: TOL=0
X1 1 2 NTC Params: 
+ B0=-16.1431695445133 
+ B1=7091.52492551577 
+ B2=-1286728.55012098 
+ B3=246295702.783567 
+ B4=-19425103001.548 
+ R25=47000 
+ T={1+TOL/100} 
+ CTH=0.0054 GTH0=0.0048762 GTH1=3.102E-6 TK=273.15
.ENDS
*
*
* Typenmodell für C621/68k :
* --------------------------
.SUBCKT C621_68000 1 2  PARAMS: TOL=0
X1 1 2 NTC Params: 
+ B0=-16.1431695445133 
+ B1=7091.52492551577 
+ B2=-1286728.55012098 
+ B3=246295702.783567 
+ B4=-19425103001.548 
+ R25=68000 
+ T={1+TOL/100} 
+ CTH=0.0054 GTH0=0.0048762 GTH1=3.102E-6 TK=273.15
.ENDS
*
*
* Typenmodell für C621/100k :
* ---------------------------
.SUBCKT C621_100000 1 2  PARAMS: TOL=0
X1 1 2 NTC Params: 
+ B0=-16.9094702670379 
+ B1=7631.63163923026 
+ B2=-1390262.2275485 
+ B3=244841120.24783 
+ B4=-18053592436.9151 
+ R25=100000 
+ T={1+TOL/100} 
+ CTH=0.0054 GTH0=0.0048762 GTH1=3.102E-6 TK=273.15
.ENDS
*
*
* Typenmodell für C621/150k :
* ---------------------------
.SUBCKT C621_150000 1 2  PARAMS: TOL=0
X1 1 2 NTC Params: 
+ B0=-14.0953897242424 
+ B1=3082.962070953 
+ B2=1008750.730846 
+ B3=-279098232.76 
+ B4=23226481092.29 
+ R25=150000 
+ T={1+TOL/100} 
+ CTH=0.0054 GTH0=0.0048762 GTH1=3.102E-6 TK=273.15
.ENDS
*
*
* Typenmodell für C621/220k :
* ---------------------------
.SUBCKT C621_220000 1 2  PARAMS: TOL=0
X1 1 2 NTC Params: 
+ B0=-16.6369353109761 
+ B1=6664.46454504816 
+ B2=-897453.062841583 
+ B3=157049849.343104 
+ B4=-12217691539.6873 
+ R25=220000 
+ T={1+TOL/100} 
+ CTH=0.0054 GTH0=0.0048762 GTH1=3.102E-6 TK=273.15
.ENDS
*
*
* Typenmodell für C621/330k :
* ---------------------------
.SUBCKT C621_330000 1 2  PARAMS: TOL=0
X1 1 2 NTC Params: 
+ B0=-21.1076688988866 
+ B1=10708.4003204327 
+ B2=-2230387.50369866 
+ B3=355497599.597809 
+ B4=-24753589952.7545 
+ R25=330000 
+ T={1+TOL/100} 
+ CTH=0.0054 GTH0=0.0048762 GTH1=3.102E-6 TK=273.15
.ENDS
*
*
* Typenmodell für C621/470k :
* ---------------------------
.SUBCKT C621_470000 1 2  PARAMS: TOL=0
X1 1 2 NTC Params: 
+ B0=-21.1076688988866 
+ B1=10708.4003204327 
+ B2=-2230387.50369866 
+ B3=355497599.597809 
+ B4=-24753589952.7545 
+ R25=470000 
+ T={1+TOL/100} 
+ CTH=0.0054 GTH0=0.0048762 GTH1=3.102E-6 TK=273.15
.ENDS
*
*
* Typenmodell für C621/680k :
* ---------------------------
.SUBCKT C621_680000 1 2  PARAMS: TOL=0
X1 1 2 NTC Params: 
+ B0=-16.4774323978877 
+ B1=5652.31225936307 
+ B2=-149604.798488887 
+ B3=-34580532.0741395 
+ B4=4008869998.83643 
+ R25=680000 
+ T={1+TOL/100} 
+ CTH=0.0054 GTH0=0.0048762 GTH1=3.102E-6 TK=273.15
.ENDS
*
*
* Typenmodell für K150/130 :
* --------------------------
.SUBCKT K150_127_9 1 2  PARAMS: TOL=0
X1 1 2 NTC Params: 
+ B0=-11.5307507445051 
+ B1=2876.45244649406 
+ B2=427703.422789649 
+ B3=-98673920.9714302 
+ B4=6279823094.96873 
+ R25=127.9 
+ T={1+TOL/100} 
+ CTH=0.041 GTH0=0.0049781 GTH1=4.354E-6 TK=273.15
.ENDS
*
*
* Typenmodell für K220/2.1k :
* ---------------------------
.SUBCKT K220_2056_9 1 2  PARAMS: TOL=0
X1 1 2 NTC Params: 
+ B0=-13.259578306489 
+ B1=4661.90110754562 
+ B2=-361729.025725119 
+ B3=69407497.3353788 
+ B4=-7291623710.76263 
+ R25=2056.9 
+ T={1+TOL/100} 
+ CTH=0.005 GTH0=0.0013611 GTH1=1.709E-6 TK=273.15
.ENDS
*
*
* Typenmodell für M820/560 :
* --------------------------
.SUBCKT M820_560_2 1 2  PARAMS: TOL=0
X1 1 2 NTC Params: 
+ B0=-14.8944138540354 
+ B1=5797.42130645663 
+ B2=-818963.335429137 
+ B3=178320352.256831 
+ B4=-16311693651.1278 
+ R25=560.2 
+ T={1+TOL/100} 
+ CTH=0.032 GTH0=0.0028279 GTH1=3.567E-6 TK=273.15
.ENDS
*
*
* Typenmodell für M820/840 :
* --------------------------
.SUBCKT M820_843_2 1 2  PARAMS: TOL=0
X1 1 2 NTC Params: 
+ B0=-15.5621650698308 
+ B1=7686.85070379051 
+ B2=-1818080.40482223 
+ B3=376439740.696711 
+ B4=-31370381545.2531 
+ R25=843.2 
+ T={1+TOL/100} 
+ CTH=0.032 GTH0=0.0028279 GTH1=3.567E-6 TK=273.15
.ENDS
*
*
* Typenmodell für M820/2.1k :
* ---------------------------
.SUBCKT M820_2052_6 1 2  PARAMS: TOL=0
X1 1 2 NTC Params: 
+ B0=-17.099491328 
+ B1=8088.8327186 
+ B2=-1686368.5503 
+ B3=318868260.31 
+ B4=-24413899610 
+ R25=2052.6 
+ T={1+TOL/100} 
+ CTH=0.032 GTH0=0.0028279 GTH1=3.567E-6 TK=273.15
.ENDS
*
*
* Typenmodell für M85/4.7k :
* --------------------------
.SUBCKT M85_4700 1 2  PARAMS: TOL=0
X1 1 2 NTC Params: 
+ B0=-12.1804904572325 
+ B1=3604.71942197305 
+ B2=140988.697968674 
+ B3=-50377085.4184641 
+ B4=3199582763.19706 
+ R25=4700 
+ T={1+TOL/100} 
+ CTH=0.0065 GTH0=0.0007154 GTH1=7.717E-7 TK=273.15
.ENDS
*
*
* Typenmodell für M85/10k :
* -------------------------
.SUBCKT M85_10000 1 2  PARAMS: TOL=0
X1 1 2 NTC Params: 
+ B0=-12.1804904572325 
+ B1=3604.71942197305 
+ B2=140988.697968674 
+ B3=-50377085.4184641 
+ B4=3199582763.19706 
+ R25=10000 
+ T={1+TOL/100} 
+ CTH=0.0065 GTH0=0.0007154 GTH1=7.717E-7 TK=273.15
.ENDS
*
*
* Typenmodell für M85/47k :
* -------------------------
.SUBCKT M85_47000 1 2  PARAMS: TOL=0
X1 1 2 NTC Params: 
+ B0=-3.055468756362 
+ B1=3873.101552509 
+ B2=279084.1480535 
+ B3=-80994321.8557 
+ B4=5529976526.501 
+ R25=47000 
+ T={1+TOL/100} 
+ CTH=0.0065 GTH0=0.0007154 GTH1=7.717E-7 TK=273.15
.ENDS
*
*
* Typenmodell für M85/100.0k :
* ----------------------------
.SUBCKT M85_100000 1 2  PARAMS: TOL=0
X1 1 2 NTC Params: 
+ B0=-3.055468756362 
+ B1=3873.101552509 
+ B2=279084.1480535 
+ B3=-80994321.8557 
+ B4=5529976526.501 
+ R25=100000 
+ T={1+TOL/100} 
+ CTH=0.0065 GTH0=0.0007154 GTH1=7.717E-7 TK=273.15
.ENDS
*
*
* Typenmodell für K153/4.7 :
* --------------------------
.SUBCKT K153_4_7 1 2  PARAMS: TOL=0
X1 1 2 NTC Params: 
+ B0=-9.62151890910143 
+ B1=2858.09984664172 
+ B2=47093.7602695334 
+ B3=-15728664.0700627 
+ B4=782761109.972928 
+ R25=4.7 
+ T={1+TOL/100} 
+ CTH=0.22 GTH0=0.0078323 GTH1=1.381E-5 TK=273.15
.ENDS
*
*
* Typenmodell für K153/10 :
* -------------------------
.SUBCKT K153_10 1 2  PARAMS: TOL=0
X1 1 2 NTC Params: 
+ B0=-9.62151890910143 
+ B1=2858.09984664172 
+ B2=47093.7602695334 
+ B3=-15728664.0700627 
+ B4=782761109.972928 
+ R25=10 
+ T={1+TOL/100} 
+ CTH=0.22 GTH0=0.0078323 GTH1=1.381E-5 TK=273.15
.ENDS
*
*
* Typenmodell für K164/15 :
* -------------------------
.SUBCKT K164_15 1 2  PARAMS: TOL=0
X1 1 2 NTC Params: 
+ B0=-9.64383571406453 
+ B1=2602.24224015408 
+ B2=191966.391851936 
+ B3=-40484994.1229511 
+ B4=2243201261.96206 
+ R25=15 
+ T={1+TOL/100} 
+ CTH=0.136 GTH0=0.0074837 GTH1=4.701E-6 TK=273.15
.ENDS
*
*
* Typenmodell für K164/22 :
* -------------------------
.SUBCKT K164_22 1 2  PARAMS: TOL=0
X1 1 2 NTC Params: 
+ B0=-9.64383571406453 
+ B1=2602.24224015408 
+ B2=191966.391851936 
+ B3=-40484994.1229511 
+ B4=2243201261.96206 
+ R25=22 
+ T={1+TOL/100} 
+ CTH=0.136 GTH0=0.0074837 GTH1=4.701E-6 TK=273.15
.ENDS
*
*
* Typenmodell für K164/33 :
* -------------------------
.SUBCKT K164_33 1 2  PARAMS: TOL=0
X1 1 2 NTC Params: 
+ B0=-9.64383571406453 
+ B1=2602.24224015408 
+ B2=191966.391851936 
+ B3=-40484994.1229511 
+ B4=2243201261.96206 
+ R25=33 
+ T={1+TOL/100} 
+ CTH=0.136 GTH0=0.0074837 GTH1=4.701E-6 TK=273.15
.ENDS
*
*
* Typenmodell für K164/47 :
* -------------------------
.SUBCKT K164_47 1 2  PARAMS: TOL=0
X1 1 2 NTC Params: 
+ B0=-12.6937692504079 
+ B1=5498.56929422705 
+ B2=-850214.999414187 
+ B3=125785600.618086 
+ B4=-7349163147.77757 
+ R25=47 
+ T={1+TOL/100} 
+ CTH=0.136 GTH0=0.0074837 GTH1=4.701E-6 TK=273.15
.ENDS
*
*
* Typenmodell für K164/68 :
* -------------------------
.SUBCKT K164_68 1 2  PARAMS: TOL=0
X1 1 2 NTC Params: 
+ B0=-11.1633152783721 
+ B1=3769.92810619091 
+ B2=-185996.880918542 
+ B3=23253762.9866783 
+ B4=-2075249242.88459 
+ R25=68 
+ T={1+TOL/100} 
+ CTH=0.136 GTH0=0.0074837 GTH1=4.701E-6 TK=273.15
.ENDS
*
*
* Typenmodell für K164/100 :
* --------------------------
.SUBCKT K164_100 1 2  PARAMS: TOL=0
X1 1 2 NTC Params: 
+ B0=-11.5308432841836 
+ B1=3799.92010884369 
+ B2=-145739.497346467 
+ B3=16270237.2871899 
+ B4=-1480016638.82789 
+ R25=100 
+ T={1+TOL/100} 
+ CTH=0.136 GTH0=0.0074837 GTH1=4.701E-6 TK=273.15
.ENDS
*
*
* Typenmodell für K164/150 :
* --------------------------
.SUBCKT K164_150 1 2  PARAMS: TOL=0
X1 1 2 NTC Params: 
+ B0=-11.5308432841836 
+ B1=3799.92010884369 
+ B2=-145739.497346467 
+ B3=16270237.2871899 
+ B4=-1480016638.82789 
+ R25=150 
+ T={1+TOL/100} 
+ CTH=0.136 GTH0=0.0074837 GTH1=4.701E-6 TK=273.15
.ENDS
*
*
* Typenmodell für K164/220 :
* --------------------------
.SUBCKT K164_220 1 2  PARAMS: TOL=0
X1 1 2 NTC Params: 
+ B0=-11.5308432841836 
+ B1=3799.92010884369 
+ B2=-145739.497346467 
+ B3=16270237.2871899 
+ B4=-1480016638.82789 
+ R25=220 
+ T={1+TOL/100} 
+ CTH=0.136 GTH0=0.0074837 GTH1=4.701E-6 TK=273.15
.ENDS
*
*
* Typenmodell für K164/330 :
* --------------------------
.SUBCKT K164_330 1 2  PARAMS: TOL=0
X1 1 2 NTC Params: 
+ B0=-11.5307507445051 
+ B1=2876.45244649406 
+ B2=427703.422789649 
+ B3=-98673920.9714302 
+ B4=6279823094.96873 
+ R25=330 
+ T={1+TOL/100} 
+ CTH=0.136 GTH0=0.0074837 GTH1=4.701E-6 TK=273.15
.ENDS
*
*
* Typenmodell für K164/470 :
* --------------------------
.SUBCKT K164_470 1 2  PARAMS: TOL=0
X1 1 2 NTC Params: 
+ B0=-11.5307507445051 
+ B1=2876.45244649406 
+ B2=427703.422789649 
+ B3=-98673920.9714302 
+ B4=6279823094.96873 
+ R25=470 
+ T={1+TOL/100} 
+ CTH=0.136 GTH0=0.0074837 GTH1=4.701E-6 TK=273.15
.ENDS
*
*
* Typenmodell für K164/680 :
* --------------------------
.SUBCKT K164_680 1 2  PARAMS: TOL=0
X1 1 2 NTC Params: 
+ B0=-15.5627602881962 
+ B1=7823.68874357333 
+ B2=-1945000.55419764 
+ B3=412842066.511181 
+ B4=-34574852941.9769 
+ R25=680 
+ T={1+TOL/100} 
+ CTH=0.136 GTH0=0.0074837 GTH1=4.701E-6 TK=273.15
.ENDS
*
*
* Typenmodell für K164/1k :
* -------------------------
.SUBCKT K164_1000 1 2  PARAMS: TOL=0
X1 1 2 NTC Params: 
+ B0=-13.8712479437673 
+ B1=4659.14340838048 
+ B2=-165829.733275238 
+ B3=3843618.13628143 
+ B4=-280445179.724124 
+ R25=1000 
+ T={1+TOL/100} 
+ CTH=0.136 GTH0=0.0074837 GTH1=4.701E-6 TK=273.15
.ENDS
*
*
* Typenmodell für K164/1.5k :
* ---------------------------
.SUBCKT K164_1500 1 2  PARAMS: TOL=0
X1 1 2 NTC Params: 
+ B0=-13.7532708259955 
+ B1=3871.39800422133 
+ B2=302024.789602715 
+ B3=-90049384.280685 
+ B4=6073197037.92074 
+ R25=1500 
+ T={1+TOL/100} 
+ CTH=0.136 GTH0=0.0074837 GTH1=4.701E-6 TK=273.15
.ENDS
*
*
* Typenmodell für K164/2.2k :
* ---------------------------
.SUBCKT K164_2200 1 2  PARAMS: TOL=0
X1 1 2 NTC Params: 
+ B0=-13.7532708259955 
+ B1=3871.39800422133 
+ B2=302024.789602715 
+ B3=-90049384.280685 
+ B4=6073197037.92074 
+ R25=2200 
+ T={1+TOL/100} 
+ CTH=0.136 GTH0=0.0074837 GTH1=4.701E-6 TK=273.15
.ENDS
*
*
* Typenmodell für K164/3.3k :
* ---------------------------
.SUBCKT K164_3300 1 2  PARAMS: TOL=0
X1 1 2 NTC Params: 
+ B0=-14.9488427101884 
+ B1=5178.35645837075 
+ B2=-255215.692838918 
+ B3=14518126.7679008 
+ B4=-783705135.544276 
+ R25=3300 
+ T={1+TOL/100} 
+ CTH=0.136 GTH0=0.0074837 GTH1=4.701E-6 TK=273.15
.ENDS
*
*
* Typenmodell für K164/4.7k :
* ---------------------------
.SUBCKT K164_4700 1 2  PARAMS: TOL=0
X1 1 2 NTC Params: 
+ B0=-14.9488427101884 
+ B1=5178.35645837075 
+ B2=-255215.692838918 
+ B3=14518126.7679008 
+ B4=-783705135.544276 
+ R25=4700 
+ T={1+TOL/100} 
+ CTH=0.136 GTH0=0.0074837 GTH1=4.701E-6 TK=273.15
.ENDS
*
*
* Typenmodell für K164/6.8k :
* ---------------------------
.SUBCKT K164_6800 1 2  PARAMS: TOL=0
X1 1 2 NTC Params: 
+ B0=-16.6369353109761 
+ B1=6664.46454504816 
+ B2=-897453.062841583 
+ B3=157049849.343104 
+ B4=-12217691539.6873 
+ R25=6800 
+ T={1+TOL/100} 
+ CTH=0.136 GTH0=0.0074837 GTH1=4.701E-6 TK=273.15
.ENDS
*
*
* Typenmodell für K164/10k :
* --------------------------
.SUBCKT K164_10000 1 2  PARAMS: TOL=0
X1 1 2 NTC Params: 
+ B0=-18.3241879607272 
+ B1=8508.04977392148 
+ B2=-1754860.38451858 
+ B3=346834873.031206 
+ B4=-28111094462.9847 
+ R25=10000 
+ T={1+TOL/100} 
+ CTH=0.136 GTH0=0.0074837 GTH1=4.701E-6 TK=273.15
.ENDS
*
*
* Typenmodell für K164/15k :
* --------------------------
.SUBCKT K164_15000 1 2  PARAMS: TOL=0
X1 1 2 NTC Params: 
+ B0=-21.1076688988866 
+ B1=10708.4003204327 
+ B2=-2230387.50369866 
+ B3=355497599.597809 
+ B4=-24753589952.7545 
+ R25=15000 
+ T={1+TOL/100} 
+ CTH=0.136 GTH0=0.0074837 GTH1=4.701E-6 TK=273.15
.ENDS
*
*
* Typenmodell für K164/22k :
* --------------------------
.SUBCKT K164_22000 1 2  PARAMS: TOL=0
X1 1 2 NTC Params: 
+ B0=-18.7790687318323 
+ B1=7645.66476852134 
+ B2=-795120.758477748 
+ B3=66124148.8971985 
+ B4=-3309841150.49653 
+ R25=22000 
+ T={1+TOL/100} 
+ CTH=0.136 GTH0=0.0074837 GTH1=4.701E-6 TK=273.15
.ENDS
*
*
* Typenmodell für K164/33k :
* --------------------------
.SUBCKT K164_33000 1 2  PARAMS: TOL=0
X1 1 2 NTC Params: 
+ B0=-18.7790687318323 
+ B1=7645.66476852134 
+ B2=-795120.758477748 
+ B3=66124148.8971985 
+ B4=-3309841150.49653 
+ R25=33000 
+ T={1+TOL/100} 
+ CTH=0.136 GTH0=0.0074837 GTH1=4.701E-6 TK=273.15
.ENDS
*
*
* Typenmodell für K164/47k :
* --------------------------
.SUBCKT K164_47000 1 2  PARAMS: TOL=0
X1 1 2 NTC Params: 
+ B0=-20.6098058052342 
+ B1=9743.11646599052 
+ B2=-1826401.88053098 
+ B3=299951648.890517 
+ B4=-22481506737.455 
+ R25=47000 
+ T={1+TOL/100} 
+ CTH=0.136 GTH0=0.0074837 GTH1=4.701E-6 TK=273.15
.ENDS
*
*
* Typenmodell für K164/68k :
* --------------------------
.SUBCKT K164_68000 1 2  PARAMS: TOL=0
X1 1 2 NTC Params: 
+ B0=-22.8154377017465 
+ B1=12107.6407681375 
+ B2=-2890122.8843071 
+ B3=523932525.011709 
+ B4=-39929257936.1894 
+ R25=68000 
+ T={1+TOL/100} 
+ CTH=0.136 GTH0=0.0074837 GTH1=4.701E-6 TK=273.15
.ENDS
*
*
* Typenmodell für K164/100k :
* ---------------------------
.SUBCKT K164_100000 1 2  PARAMS: TOL=0
X1 1 2 NTC Params: 
+ B0=-22.8154377017465 
+ B1=12107.6407681375 
+ B2=-2890122.8843071 
+ B3=523932525.011709 
+ B4=-39929257936.1894 
+ R25=100000 
+ T={1+TOL/100} 
+ CTH=0.136 GTH0=0.0074837 GTH1=4.701E-6 TK=273.15
.ENDS
*
*
* Typenmodell für K164/150k :
* ---------------------------
.SUBCKT K164_150000 1 2  PARAMS: TOL=0
X1 1 2 NTC Params: 
+ B0=-22.8154377017465 
+ B1=12107.6407681375 
+ B2=-2890122.8843071 
+ B3=523932525.011709 
+ B4=-39929257936.1894 
+ R25=150000 
+ T={1+TOL/100} 
+ CTH=0.136 GTH0=0.0074837 GTH1=4.701E-6 TK=273.15
.ENDS
*
*
* Typenmodell für K164/220k :
* ---------------------------
.SUBCKT K164_220000 1 2  PARAMS: TOL=0
X1 1 2 NTC Params: 
+ B0=-21.4131724157346 
+ B1=9041.51429567315 
+ B2=-1092708.88342884 
+ B3=103133353.496888 
+ B4=-4037112214.52613 
+ R25=220000 
+ T={1+TOL/100} 
+ CTH=0.136 GTH0=0.0074837 GTH1=4.701E-6 TK=273.15
.ENDS
*
*
* Typenmodell für K164/330k :
* ---------------------------
.SUBCKT K164_330000 1 2  PARAMS: TOL=0
X1 1 2 NTC Params: 
+ B0=-16.4979058109161 
+ B1=2212.26172200628 
+ B2=2178918.72315154 
+ B3=-558294573.811455 
+ B4=44492756790.1515 
+ R25=330000 
+ T={1+TOL/100} 
+ CTH=0.136 GTH0=0.0074837 GTH1=4.701E-6 TK=273.15
.ENDS
*
*
* Typenmodell für K164/470k :
* ---------------------------
.SUBCKT K164_470000 1 2  PARAMS: TOL=0
X1 1 2 NTC Params: 
+ B0=-16.4979058109161 
+ B1=2212.26172200628 
+ B2=2178918.72315154 
+ B3=-558294573.811455 
+ B4=44492756790.1515 
+ R25=470000 
+ T={1+TOL/100} 
+ CTH=0.136 GTH0=0.0074837 GTH1=4.701E-6 TK=273.15
.ENDS
*
*
* Typenmodell für M1891/1k :
* --------------------------
.SUBCKT M1891_1000 1 2  PARAMS: TOL=0
X1 1 2 NTC Params: 
+ B0=-11.9847664230072 
+ B1=3069.94526980822 
+ B2=418296.198088036 
+ B3=-102412371.979498 
+ B4=6690146322.502 
+ R25=1000 
+ T={1+TOL/100} 
+ CTH=0.03 GTH0=0.0023118 GTH1=3.252E-6 TK=273.15
.ENDS
*
*
* Typenmodell für M1891/10k :
* ---------------------------
.SUBCKT M1891_10000 1 2  PARAMS: TOL=0
X1 1 2 NTC Params: 
+ B0=-16.9094702670379 
+ B1=7631.63163923026 
+ B2=-1390262.2275485 
+ B3=244841120.24783 
+ B4=-18053592436.9151 
+ R25=10000 
+ T={1+TOL/100} 
+ CTH=0.03 GTH0=0.0023118 GTH1=3.252E-6 TK=273.15
.ENDS
*
*
* Typenmodell für M1891/47k :
* ---------------------------
.SUBCKT M1891_47000 1 2  PARAMS: TOL=0
X1 1 2 NTC Params: 
+ B0=-18.3241879607272 
+ B1=8508.04977392148 
+ B2=-1754860.38451858 
+ B3=346834873.031206 
+ B4=-28111094462.9847 
+ R25=47000 
+ T={1+TOL/100} 
+ CTH=0.03 GTH0=0.0023118 GTH1=3.252E-6 TK=273.15
.ENDS
*
*
* Typenmodell für M1891/100k :
* ----------------------------
.SUBCKT M1891_100000 1 2  PARAMS: TOL=0
X1 1 2 NTC Params: 
+ B0=-20.6098058052342 
+ B1=9743.11646599052 
+ B2=-1826401.88053098 
+ B3=299951648.890517 
+ B4=-22481506737.455 
+ R25=100000 
+ T={1+TOL/100} 
+ CTH=0.03 GTH0=0.0023118 GTH1=3.252E-6 TK=273.15
.ENDS
*
*
* Typenmodell für M891/1k :
* -------------------------
.SUBCKT M891_1000 1 2  PARAMS: TOL=0
X1 1 2 NTC Params: 
+ B0=-14.8944138540354 
+ B1=5797.42130645663 
+ B2=-818963.335429137 
+ B3=178320352.256831 
+ B4=-16311693651.1278 
+ R25=1000 
+ T={1+TOL/100} 
+ CTH=0.06 GTH0=0.0038372 GTH1=1.827E-6 TK=273.15
.ENDS
*
*
* Typenmodell für M891/1.5k :
* ---------------------------
.SUBCKT M891_1500 1 2  PARAMS: TOL=0
X1 1 2 NTC Params: 
+ B0=-13.259578306489 
+ B1=4661.90110754562 
+ B2=-361729.025725119 
+ B3=69407497.3353788 
+ B4=-7291623710.76263 
+ R25=1500 
+ T={1+TOL/100} 
+ CTH=0.06 GTH0=0.0038372 GTH1=1.827E-6 TK=273.15
.ENDS
*
*
* Typenmodell für M891/2.2k :
* ---------------------------
.SUBCKT M891_2200 1 2  PARAMS: TOL=0
X1 1 2 NTC Params: 
+ B0=-13.7532708259955 
+ B1=3871.39800422133 
+ B2=302024.789602715 
+ B3=-90049384.280685 
+ B4=6073197037.92074 
+ R25=2200 
+ T={1+TOL/100} 
+ CTH=0.06 GTH0=0.0038372 GTH1=1.827E-6 TK=273.15
.ENDS
*
*
* Typenmodell für M891/3.3k :
* ---------------------------
.SUBCKT M891_3300 1 2  PARAMS: TOL=0
X1 1 2 NTC Params: 
+ B0=-14.4184182732542 
+ B1=4699.05949699328 
+ B2=-127103.042753613 
+ B3=4999919.20330329 
+ B4=-799502544.166604 
+ R25=3300 
+ T={1+TOL/100} 
+ CTH=0.06 GTH0=0.0038372 GTH1=1.827E-6 TK=273.15
.ENDS
*
*
* Typenmodell für M891/4.7k :
* ---------------------------
.SUBCKT M891_4700 1 2  PARAMS: TOL=0
X1 1 2 NTC Params: 
+ B0=-14.4184182732542 
+ B1=4699.05949699328 
+ B2=-127103.042753613 
+ B3=4999919.20330329 
+ B4=-799502544.166604 
+ R25=4700 
+ T={1+TOL/100} 
+ CTH=0.06 GTH0=0.0038372 GTH1=1.827E-6 TK=273.15
.ENDS
*
*
* Typenmodell für M891/6.8k :
* ---------------------------
.SUBCKT M891_6800 1 2  PARAMS: TOL=0
X1 1 2 NTC Params: 
+ B0=-14.4184182732542 
+ B1=4699.05949699328 
+ B2=-127103.042753613 
+ B3=4999919.20330329 
+ B4=-799502544.166604 
+ R25=6800 
+ T={1+TOL/100} 
+ CTH=0.06 GTH0=0.0038372 GTH1=1.827E-6 TK=273.15
.ENDS
*
*
* Typenmodell für M891/10k :
* --------------------------
.SUBCKT M891_10000 1 2  PARAMS: TOL=0
X1 1 2 NTC Params: 
+ B0=-16.9094702670379 
+ B1=7631.63163923026 
+ B2=-1390262.2275485 
+ B3=244841120.24783 
+ B4=-18053592436.9151 
+ R25=10000 
+ T={1+TOL/100} 
+ CTH=0.06 GTH0=0.0038372 GTH1=1.827E-6 TK=273.15
.ENDS
*
*
* Typenmodell für M891/15k :
* --------------------------
.SUBCKT M891_15000 1 2  PARAMS: TOL=0
X1 1 2 NTC Params: 
+ B0=-14.0953897242424 
+ B1=3082.962070953 
+ B2=1008750.730846 
+ B3=-279098232.76 
+ B4=23226481092.29 
+ R25=15000 
+ T={1+TOL/100} 
+ CTH=0.06 GTH0=0.0038372 GTH1=1.827E-6 TK=273.15
.ENDS
*
*
* Typenmodell für M891/22k :
* --------------------------
.SUBCKT M891_22000 1 2  PARAMS: TOL=0
X1 1 2 NTC Params: 
+ B0=-18.3241879607272 
+ B1=8508.04977392148 
+ B2=-1754860.38451858 
+ B3=346834873.031206 
+ B4=-28111094462.9847 
+ R25=22000 
+ T={1+TOL/100} 
+ CTH=0.06 GTH0=0.0038372 GTH1=1.827E-6 TK=273.15
.ENDS
*
*
* Typenmodell für M891/33k :
* --------------------------
.SUBCKT M891_33000 1 2  PARAMS: TOL=0
X1 1 2 NTC Params: 
+ B0=-18.3241879607272 
+ B1=8508.04977392148 
+ B2=-1754860.38451858 
+ B3=346834873.031206 
+ B4=-28111094462.9847 
+ R25=33000 
+ T={1+TOL/100} 
+ CTH=0.06 GTH0=0.0038372 GTH1=1.827E-6 TK=273.15
.ENDS
*
*
* Typenmodell für M891/47k :
* --------------------------
.SUBCKT M891_47000 1 2  PARAMS: TOL=0
X1 1 2 NTC Params: 
+ B0=-16.4774323978877 
+ B1=5652.31225936307 
+ B2=-149604.798488887 
+ B3=-34580532.0741395 
+ B4=4008869998.83643 
+ R25=47000 
+ T={1+TOL/100} 
+ CTH=0.06 GTH0=0.0038372 GTH1=1.827E-6 TK=273.15
.ENDS
*
*
* Typenmodell für M891/68k :
* --------------------------
.SUBCKT M891_68000 1 2  PARAMS: TOL=0
X1 1 2 NTC Params: 
+ B0=-16.4774323978877 
+ B1=5652.31225936307 
+ B2=-149604.798488887 
+ B3=-34580532.0741395 
+ B4=4008869998.83643 
+ R25=68000 
+ T={1+TOL/100} 
+ CTH=0.06 GTH0=0.0038372 GTH1=1.827E-6 TK=273.15
.ENDS
*
*
* Typenmodell für M891/100k :
* ---------------------------
.SUBCKT M891_100000 1 2  PARAMS: TOL=0
X1 1 2 NTC Params: 
+ B0=-20.6098058052342 
+ B1=9743.11646599052 
+ B2=-1826401.88053098 
+ B3=299951648.890517 
+ B4=-22481506737.455 
+ R25=100000 
+ T={1+TOL/100} 
+ CTH=0.06 GTH0=0.0038372 GTH1=1.827E-6 TK=273.15
.ENDS
*
*
* Typenmodell für M891/150k :
* ---------------------------
.SUBCKT M891_150000 1 2  PARAMS: TOL=0
X1 1 2 NTC Params: 
+ B0=-22.8154377017465 
+ B1=12107.6407681375 
+ B2=-2890122.8843071 
+ B3=523932525.011709 
+ B4=-39929257936.1894 
+ R25=150000 
+ T={1+TOL/100} 
+ CTH=0.06 GTH0=0.0038372 GTH1=1.827E-6 TK=273.15
.ENDS
*
*
* Typenmodell für M891/220k :
* ---------------------------
.SUBCKT M891_220000 1 2  PARAMS: TOL=0
X1 1 2 NTC Params: 
+ B0=-22.8154377017465 
+ B1=12107.6407681375 
+ B2=-2890122.8843071 
+ B3=523932525.011709 
+ B4=-39929257936.1894 
+ R25=220000 
+ T={1+TOL/100} 
+ CTH=0.06 GTH0=0.0038372 GTH1=1.827E-6 TK=273.15
.ENDS
*
*
* Typenmodell für M891/330k :
* ---------------------------
.SUBCKT M891_330000 1 2  PARAMS: TOL=0
X1 1 2 NTC Params: 
+ B0=-21.4131724157346 
+ B1=9041.51429567315 
+ B2=-1092708.88342884 
+ B3=103133353.496888 
+ B4=-4037112214.52613 
+ R25=330000 
+ T={1+TOL/100} 
+ CTH=0.06 GTH0=0.0038372 GTH1=1.827E-6 TK=273.15
.ENDS
*
*
* Typenmodell für M891/470k :
* ---------------------------
.SUBCKT M891_470000 1 2  PARAMS: TOL=0
X1 1 2 NTC Params: 
+ B0=-16.4979058109161 
+ B1=2212.26172200628 
+ B2=2178918.72315154 
+ B3=-558294573.811455 
+ B4=44492756790.1515 
+ R25=470000 
+ T={1+TOL/100} 
+ CTH=0.06 GTH0=0.0038372 GTH1=1.827E-6 TK=273.15
.ENDS
*
*
* Typenmodell für S891/2.2k :
* ---------------------------
.SUBCKT S891_2200 1 2  PARAMS: TOL=0
X1 1 2 NTC Params: 
+ B0=-13.259578306489 
+ B1=4661.90110754562 
+ B2=-361729.025725119 
+ B3=69407497.3353788 
+ B4=-7291623710.76263 
+ R25=2200 
+ T={1+TOL/100} 
+ CTH=0.095 GTH0=0.0046328 GTH1=1.976E-6 TK=273.15
.ENDS
*
*
* Typenmodell für S891/10k :
* --------------------------
.SUBCKT S891_10000 1 2  PARAMS: TOL=0
X1 1 2 NTC Params: 
+ B0=-16.9094702670379 
+ B1=7631.63163923026 
+ B2=-1390262.2275485 
+ B3=244841120.24783 
+ B4=-18053592436.9151 
+ R25=10000 
+ T={1+TOL/100} 
+ CTH=0.095 GTH0=0.0046328 GTH1=1.976E-6 TK=273.15
.ENDS
*
*
* Typenmodell für S891/20k :
* --------------------------
.SUBCKT S891_20000 1 2  PARAMS: TOL=0
X1 1 2 NTC Params: 
+ B0=-18.3241879607272 
+ B1=8508.04977392148 
+ B2=-1754860.38451858 
+ B3=346834873.031206 
+ B4=-28111094462.9847 
+ R25=20000 
+ T={1+TOL/100} 
+ CTH=0.095 GTH0=0.0046328 GTH1=1.976E-6 TK=273.15
.ENDS
*
*
* Typenmodell für S891/100k :
* ---------------------------
.SUBCKT S891_100000 1 2  PARAMS: TOL=0
X1 1 2 NTC Params: 
+ B0=-20.6098058052342 
+ B1=9743.11646599052 
+ B2=-1826401.88053098 
+ B3=299951648.890517 
+ B4=-22481506737.455 