*
.SUBCKT 1n4678_ON 2 1
**************************************  
*      Model Generated by MODPEX     *  
*Copyright(c) Symmetry Design Systems*  
*         All Rights Reserved        *  
*    UNPUBLISHED LICENSED SOFTWARE   *  
*   Contains Proprietary Information *  
*      Which is The Property of      *  
*     SYMMETRY OR ITS LICENSORS      *  
*Commercial Use or Resale Restricted *  
*   by Symmetry License Agreement    *  
**************************************  
* Model generated on Jun 21, 00  
* MODEL FORMAT: SPICE3  
*     anode cathode  
*node: 2      1  
*    Forward Section
D1 2 1 MD1
.MODEL MD1 D IS=8.943e-18 N=0.88266 XTI=1 RS=10  
+ CJO=2.95e-10 TT=1.0079e-07  
*    Leakage Current
R 1 2 MDR 1.66667e+06
.MODEL MDR RES TC1=0 TC2=0  
*    Breakdown
RZ 2 3 361.752
IZG 4 3 0.00015
R4 4 3 100000
D3 3 4 MD3
.MODEL MD3 D IS=2.5e-12 N=0.626212 XTI=0 EG=0.1
D2 5 4 MD2
.MODEL MD2 D IS=2.5e-12 N=1.17214 XTI=0 EG=0.1
EV1 1 5 6 0 1
IBV 0 6 0.001
RBV 6 0 MDRBV 1748.9
.MODEL MDRBV RES TC1=0  
*-- SPICE3 DIODE MODEL DEFAULT PARAMETER  
*  VALUES ARE ASSUMED  
*IS=1E-14 RS=0 N=1 TT=0 CJO=0  
*VJ=1 M=0.5 EG=1.11 XTI=3 FC=0.5  
*KF=0 AF=1 BV=inf IBV=1e-3 TNOM=27
.ENDS 1n4678_ON
.SUBCKT 1n4683_ON 2 1 
**************************************  
*      Model Generated by MODPEX     *  
*Copyright(c) Symmetry Design Systems*  
*         All Rights Reserved        *  
*    UNPUBLISHED LICENSED SOFTWARE   *  
*   Contains Proprietary Information *  
*      Which is The Property of      *  
*     SYMMETRY OR ITS LICENSORS      *  
*Commercial Use or Resale Restricted *  
*   by Symmetry License Agreement    *  
**************************************  
* Model generated on Jun 21, 00  
* MODEL FORMAT: SPICE3  
*     anode cathode  
*node: 2      1  
*    Forward Section
D1 2 1 MD1
.MODEL MD1 D IS=9.70335e-11 N=1.67127 XTI=1 RS=10  
+ CJO=2.37e-10 TT=1e-08  
*    Leakage Current
R 1 2 MDR 1.47767e+08
.MODEL MDR RES TC1=0 TC2=0  
*    Breakdown
RZ 2 3 1429.91
IZG 4 3 0.00015
R4 4 3 375000
D3 3 4 MD3
.MODEL MD3 D IS=2.5e-12 N=4.30855 XTI=0 EG=0.1
D2 5 4 MD2
.MODEL MD2 D IS=2.5e-12 N=5.97291 XTI=0 EG=0.1
EV1 1 5 6 0 1
IBV 0 6 0.001
RBV 6 0 MDRBV 2710.62
.MODEL MDRBV RES TC1=0  
*-- SPICE3 DIODE MODEL DEFAULT PARAMETER  
*  VALUES ARE ASSUMED  
*IS=1E-14 RS=0 N=1 TT=0 CJO=0  
*VJ=1 M=0.5 EG=1.11 XTI=3 FC=0.5  
*KF=0 AF=1 BV=inf IBV=1e-3 TNOM=27
.ENDS 1n4683_ON
.SUBCKT 1n4750a_ON 2 1
D1 2 1 MD1
.MODEL MD1 D IS=3.54071e-15 N=1.05719 XTI=1 RS=0.83  
+ CJO=4e-11 TT=1e-08  
*    Leakage Current
R 1 2 MDR 4.12e+06
.MODEL MDR RES TC1=0 TC2=0  
*    Breakdown
RZ 2 3 11.0798
IZG 4 3 0.18
R4 4 3 700
D3 3 4 MD3
.MODEL MD3 D IS=2.5e-12 N=0.364923 XTI=0 EG=0.1
D2 5 4 MD2
.MODEL MD2 D IS=2.5e-12 N=1.0537 XTI=0 EG=0.1
EV1 1 5 6 0 1
IBV 0 6 0.001
RBV 6 0 MDRBV 26529.5
.MODEL MDRBV RES TC1=0.000865074  
*-- SPICE3 DIODE MODEL DEFAULT PARAMETER  
*  VALUES ARE ASSUMED  
*IS=1E-14 RS=0 N=1 TT=0 CJO=0  
*VJ=1 M=0.5 EG=1.11 XTI=3 FC=0.5  
*KF=0 AF=1 BV=inf IBV=1e-3 TNOM=27
.ENDS 1n4750a_ON
.SUBCKT 1n4763a_ON 2 1 
**************************************  
*      Model Generated by MODPEX     *  
*Copyright(c) Symmetry Design Systems*  
*         All Rights Reserved        *  
*    UNPUBLISHED LICENSED SOFTWARE   *  
*   Contains Proprietary Information *  
*      Which is The Property of      *  
*     SYMMETRY OR ITS LICENSORS      *  
*Commercial Use or Resale Restricted *  
*   by Symmetry License Agreement    *  
**************************************  
* Model generated on Jun 21, 00  
* MODEL FORMAT: SPICE3  
*     anode cathode  
*node: 2      1  
*    Forward Section
D1 2 1 MD1
.MODEL MD1 D IS=2.22125e-07 N=2.763 XTI=1 RS=10  
+ CJO=3.35e-11 TT=1e-08  
*    Leakage Current
R 1 2 MDR 6.92e+07
.MODEL MDR RES TC1=0 TC2=0  
*    Breakdown
RZ 2 3 173.612
IZG 4 3 0.00336
R4 4 3 500
D3 3 4 MD3
.MODEL MD3 D IS=2.5e-12 N=5.23091 XTI=0 EG=0.1
D2 5 4 MD2
.MODEL MD2 D IS=2.5e-12 N=8.41883 XTI=0 EG=0.1
EV1 1 5 6 0 1
IBV 0 6 0.001
RBV 6 0 MDRBV 83384.9
.MODEL MDRBV RES TC1=0  
*-- SPICE3 DIODE MODEL DEFAULT PARAMETER  
*  VALUES ARE ASSUMED  
*IS=1E-14 RS=0 N=1 TT=0 CJO=0  
*VJ=1 M=0.5 EG=1.11 XTI=3 FC=0.5  
*KF=0 AF=1 BV=inf IBV=1e-3 TNOM=27
.ENDS 1n4763a_ON 
 
************************************** 
*      Model Generated by MODPEX     *  
*Copyright(c) Symmetry Design Systems*  
*         All Rights Reserved        *  
*    UNPUBLISHED LICENSED SOFTWARE   *  
*   Contains Proprietary Information *  
*      Which is The Property of      *  
*     SYMMETRY OR ITS LICENSORS      *  
*Commercial Use or Resale Restricted *  
*   by Symmetry License Agreement    *  
**************************************  
* Model generated on Aug 21, 00  
* MODEL FORMAT: SPICE3
.MODEL 1n5817_ON d  
+IS=2.93092e-05 RS=0.0524736 N=1.33711 EG=0.1  
+XTI=0.325839 BV=20 IBV=0.001 CJO=2.01549e-10  
+VJ=8.0542 M=0.9 FC=0.5 TT=1.47806e-08  
+KF=0 AF=1  
**************************************  
*      Model Generated by MODPEX     *  
*Copyright(c) Symmetry Design Systems*  
*         All Rights Reserved        *  
*    UNPUBLISHED LICENSED SOFTWARE   *  
*   Contains Proprietary Information *  
*      Which is The Property of      *  
*     SYMMETRY OR ITS LICENSORS      *  
*Commercial Use or Resale Restricted *  
*   by Symmetry License Agreement    *  
**************************************  
* Model generated on Aug 21, 00  
* MODEL FORMAT: SPICE3
.MODEL 1n5818_ON d  
+IS=4.4214e-05 RS=0.0531374 N=1.37435 EG=0.6  
+XTI=0.5 BV=30 IBV=0.001 CJO=1.98376e-10  
+VJ=1.5 M=0.54046 FC=0.5 TT=2.6273e-08  
+KF=0 AF=1  
**************************************  
*      Model Generated by MODPEX     *  
*Copyright(c) Symmetry Design Systems*  
*         All Rights Reserved        *  
*    UNPUBLISHED LICENSED SOFTWARE   *  
*   Contains Proprietary Information *  
*      Which is The Property of      *  
*     SYMMETRY OR ITS LICENSORS      *  
*Commercial Use or Resale Restricted *  
*   by Symmetry License Agreement    *  
**************************************  
* Model generated on Aug 21, 00  
* MODEL FORMAT: SPICE3
.MODEL 1n5819_ON d  
+IS=1.19279e-05 RS=0.0625421 N=1.16517 EG=1.3  
+XTI=3.22098 BV=40 IBV=0.001 CJO=1.50114e-10  
+VJ=1.5 M=0.590203 FC=0.5 TT=2.6273e-08  
+KF=0 AF=1
.SUBCKT 1pmt16at3_ON 7 1  
**************************************  
*      Model Generated by MODPEX     *  
*Copyright(c) Symmetry Design Systems*  
*         All Rights Reserved        *  
*    UNPUBLISHED LICENSED SOFTWARE   *  
*   Contains Proprietary Information *  
*      Which is The Property of      *  
*     SYMMETRY OR ITS LICENSORS      *  
*Commercial Use or Resale Restricted *  
*   by Symmetry License Agreement    *  
**************************************  
* Model generated on Aug 28, 00  
* MODEL FORMAT: SPICE3  
*     anode cathode  
*node: 7      1  
*    Forward Section
D1 2 1 MDD1
.MODEL MDD1 D IS=6.13963e-46 N=1 XTI=1 RS=0.01  
+ CJO=2.75e-10 TT=1e-08  
*    Leakage Current
R 1 2 MDR 3.2e+06
.MODEL MDR RES TC1=0 TC2=0  
*    Breakdown
RZ 2 3 0.300443
D3 4 3 MDD3
.MODEL MDD3 D IS=2.5e-15 N=0.5
EV1 1 4 6 8 1
IBV 0 6 0.001
RBV 6 0 MDRBV 18930
.MODEL MDRBV RES TC1=0.001
D4 8 0 MDD3
L 7 2 1e-15
IT 0 8 0.001
.ENDS 1pmt16at3_ON
.SUBCKT 1smb12at3_ON 7 1 
**************************************  
*      Model Generated by MODPEX     *  
*Copyright(c) Symmetry Design Systems*  
*         All Rights Reserved        *  
*    UNPUBLISHED LICENSED SOFTWARE   *  
*   Contains Proprietary Information *  
*      Which is The Property of      *  
*     SYMMETRY OR ITS LICENSORS      *  
*Commercial Use or Resale Restricted *  
*   by Symmetry License Agreement    *  
**************************************  
* Model generated on Aug 28, 00  
* MODEL FORMAT: SPICE3  
*     anode cathode  
*node: 7      1  
*    Forward Section
D1 2 1 MDD1
.MODEL MDD1 D IS=1.01151e-23 N=1 XTI=1 RS=0.01  
+ CJO=1.1375e-09 TT=1e-08  
*    Leakage Current
R 1 2 MDR 2.4e+06
.MODEL MDR RES TC1=0 TC2=0  
*    Breakdown
RZ 2 3 0.12539
D3 4 3 MDD3
.MODEL MDD3 D IS=2.5e-15 N=0.5
EV1 1 4 6 8 1
IBV 0 6 0.001
RBV 6 0 MDRBV 14000
.MODEL MDRBV RES TC1=0.00082
D4 8 0 MDD3
L 7 2 1e-15
IT 0 8 0.001
.ENDS 1smb12at3_ON 
 
************************************** 
*      Model Generated by MODPEX     *  
*Copyright(c) Symmetry Design Systems*  
*         All Rights Reserved        *  
*    UNPUBLISHED LICENSED SOFTWARE   *  
*   Contains Proprietary Information *  
*      Which is The Property of      *  
*     SYMMETRY OR ITS LICENSORS      *  
*Commercial Use or Resale Restricted *  
*   by Symmetry License Agreement    *  
**************************************  
* Model generated on Jun 23, 98  
* MODEL FORMAT: SPICE3
.MODEL 2n2102_ON npn  
+IS=1.1791e-10 BF=79.3546 NF=1.42901 VAF=30.134  
+IKF=0.640083 ISE=7.91563e-12 NE=3.31476 BR=3.76239  
+NR=1.5 VAR=3.69384 IKR=2.76346 ISC=3.24999e-13  
+NC=3.96875 RB=0.1 IRB=0.1 RBM=0.1  
+RE=0.00431604 RC=0.38569 XTB=0.1 XTI=1  
+EG=1.05 CJE=1e-11 VJE=0.75 MJE=0.33  
+TF=1e-09 XTF=1 VTF=10 ITF=0.01  
+CJC=1.3035e-11 VJC=0.62509 MJC=0.23 XCJC=0.9  
+FC=0.5 CJS=0 VJS=0.75 MJS=0.5  
+TR=1e-07 PTF=0 KF=0 AF=1  
  
**************************************  
*      Model Generated by MODPEX     *  
*Copyright(c) Symmetry Design Systems*  
*         All Rights Reserved        *  
*    UNPUBLISHED LICENSED SOFTWARE   *  
*   Contains Proprietary Information *  
*      Which is The Property of      *  
*     SYMMETRY OR ITS LICENSORS      *  
*Commercial Use or Resale Restricted *  
*   by Symmetry License Agreement    *  
**************************************  
* Model generated on May  6, 98  
* MODEL FORMAT: SPICE3
.MODEL bc846awt1_ON npn  
+IS=5.98852e-13 BF=300.903 NF=1.21356 VAF=35.5553  
+IKF=0.0327193 ISE=1.66338e-11 NE=2.11661 BR=0.878863  
+NR=1.28538 VAR=103.451 IKR=0.1 ISC=1.00028e-13  
+NC=1.99833 RB=13.992 IRB=0.211402 RBM=10.2587  
+RE=0.122702 RC=2.64218 XTB=0.469387 XTI=3.00025  
+EG=1.11958 CJE=2.51321e-11 VJE=0.974329 MJE=0.771856  
+TF=4.93766e-10 XTF=3.7587 VTF=2.58784 ITF=0.158491  
+CJC=6.35604e-12 VJC=0.95 MJC=0.356029 XCJC=0.899692  
+FC=0.1 CJS=0 VJS=0.75 MJS=0.5  
+TR=1e-07 PTF=0 KF=0 AF=1  
  
**************************************  
*      Model Generated by MODPEX     *  
*Copyright(c) Symmetry Design Systems*  
*         All Rights Reserved        *  
*    UNPUBLISHED LICENSED SOFTWARE   *  
*   Contains Proprietary Information *  
*      Which is The Property of      *  
*     SYMMETRY OR ITS LICENSORS      *  
*Commercial Use or Resale Restricted *  
*   by Symmetry License Agreement    *  
**************************************  
* Model generated on Feb 27, 00  
* MODEL FORMAT: SPICE3
.MODEL bc847bdw1t1_ON npn  
+IS=1.25144e-12 BF=3514.94 NF=1.17906 VAF=29.8584  
+IKF=0.00409784 ISE=1.64227e-10 NE=2.41778 BR=100  
+NR=1.21622 VAR=298.584 IKR=0.0409784 ISC=1.64227e-10  
+NC=1.76224 RB=34.1781 IRB=0.1 RBM=0.1  
+RE=0.445455 RC=2.22728 XTB=0.1 XTI=1  
+EG=1.05 CJE=7.44237e-12 VJE=0.416591 MJE=0.277923  
+TF=5.33664e-10 XTF=1.08062 VTF=76.271 ITF=0.207894  
+CJC=4.10576e-12 VJC=0.95 MJC=0.346253 XCJC=0.799987  
+FC=0.8 CJS=0 VJS=0.75 MJS=0.5  
+TR=1e-07 PTF=0 KF=0 AF=1  
**************************************  
*      Model Generated by MODPEX     *  
*Copyright(c) Symmetry Design Systems*  
*         All Rights Reserved        *  
*    UNPUBLISHED LICENSED SOFTWARE   *  
*   Contains Proprietary Information *  
*      Which is The Property of      *  
*     SYMMETRY OR ITS LICENSORS      *  
*Commercial Use or Resale Restricted *  
*   by Symmetry License Agreement    *  
**************************************  
* Model generated on Feb 28, 00  
* MODEL FORMAT: SPICE3
.MODEL bc847bpdw1t1-npn_ON npn  
+IS=1.02883e-10 BF=3441.88 NF=1.5 VAF=50.4069  
+IKF=0.0513316 ISE=6.57032e-12 NE=1.90684 BR=11.3392  
+NR=1.5 VAR=2.18491 IKR=0.513316 ISC=1e-16  
+NC=4 RB=0.117532 IRB=0.100021 RBM=0.100913  
+RE=0.376664 RC=1.88332 XTB=50 XTI=4  
+EG=1.05 CJE=9.22073e-12 VJE=0.680201 MJE=0.85  
+TF=5.8626e-10 XTF=3.3324 VTF=7.33802 ITF=0.210664  
+CJC=4.07024e-12 VJC=0.95 MJC=0.347426 XCJC=0.800007  
+FC=0.114115 CJS=0 VJS=0.75 MJS=0.5  
+TR=1e-07 PTF=0 KF=0 AF=1  
**************************************  
*      Model Generated by MODPEX     *  
*Copyright(c) Symmetry Design Systems*  
*         All Rights Reserved        *  
*    UNPUBLISHED LICENSED SOFTWARE   *  
*   Contains Proprietary Information *  
*      Which is The Property of      *  
*     SYMMETRY OR ITS LICENSORS      *  
*Commercial Use or Resale Restricted *  
*   by Symmetry License Agreement    *  
**************************************  
* Model generated on Feb 29, 00  
* MODEL FORMAT: SPICE3
.MODEL bc847bpdw1t1-pnp_ON pnp  
+IS=1.5328e-12 BF=9112.51 NF=1.19795 VAF=1000  
+IKF=0.0262758 ISE=1.59735e-11 NE=2.01554 BR=0.1  
+NR=1.5 VAR=1.53185 IKR=0.262758 ISC=1e-16  
+NC=3.99923 RB=14.3809 IRB=0.1 RBM=0.1  
+RE=0.417304 RC=2.29232 XTB=0.100827 XTI=1  
+EG=1.05 CJE=1.15731e-11 VJE=0.563603 MJE=0.23  
+TF=6.29309e-10 XTF=0.05 VTF=0.348889 ITF=0.009253  
+CJC=9.22502e-12 VJC=0.4 MJC=0.410241 XCJC=0.896891  
+FC=0.704977 CJS=0 VJS=0.75 MJS=0.5  
+TR=1e-07 PTF=0 KF=0 AF=1  
**************************************  
*      Model Generated by MODPEX     *  
*Copyright(c) Symmetry Design Systems*  
*         All Rights Reserved        *  
*    UNPUBLISHED LICENSED SOFTWARE   *  
*   Contains Proprietary Information *  
*      Which is The Property of      *  
*     SYMMETRY OR ITS LICENSORS      *  
*Commercial Use or Resale Restricted *  
*   by Symmetry License Agreement    *  
**************************************  
* Model generated on Apr 16, 00  
* MODEL FORMAT: SPICE3
.MODEL bc847ctt1_ON npn  
+IS=6.99761e-12 BF=1365.43 NF=1.24725 VAF=8.25985  
+IKF=0.116881 ISE=1.44952e-11 NE=2.07829 BR=1.23018  
+NR=1.5 VAR=1.28805 IKR=1.16881 ISC=1.44952e-11  
+NC=1.5926 RB=0.1 IRB=0.1 RBM=0.1  
+RE=0.0401459 RC=0.20073 XTB=50 XTI=1  
+EG=1.05 CJE=7.66014e-12 VJE=0.432246 MJE=0.300499  
+TF=5.86928e-10 XTF=9.47956 VTF=60.1594 ITF=0.166646  
+CJC=4.16234e-12 VJC=0.95 MJC=0.34598 XCJC=0.8  
+FC=0.8 CJS=0 VJS=0.75 MJS=0.5  
+TR=9.6728e-06 PTF=0 KF=0 AF=1  
**************************************  
*      Model Generated by MODPEX     *  
*Copyright(c) Symmetry Design Systems*  
*         All Rights Reserved        *  
*    UNPUBLISHED LICENSED SOFTWARE   *  
*   Contains Proprietary Information *  
*      Which is The Property of      *  
*     SYMMETRY OR ITS LICENSORS      *  
*Commercial Use or Resale Restricted *  
*   by Symmetry License Agreement    *  
**************************************  
* Model generated on Feb 29, 00  
* MODEL FORMAT: SPICE3
.MODEL bc857bdw1t1_ON pnp  
+IS=1.39221e-11 BF=2456.66 NF=1.40937 VAF=1000  
+IKF=0.0475031 ISE=2.06918e-12 NE=1.84548 BR=3.20229  
+NR=1.5 VAR=22.0584 IKR=0.475031 ISC=2.06918e-12  
+NC=3.69802 RB=12.2677 IRB=0.1 RBM=0.1  
+RE=0.456435 RC=2.28218 XTB=50 XTI=1  
+EG=1.05 CJE=1.14641e-11 VJE=0.648943 MJE=0.248528  
+TF=5.9789e-10 XTF=275.711 VTF=100000 ITF=5.61426  
+CJC=9.36351e-12 VJC=0.4 MJC=0.414973 XCJC=0.913978  
+FC=0.8 CJS=0 VJS=0.75 MJS=0.5  
+TR=1e-07 PTF=0 KF=0 AF=1
.SUBCKT bzx84c6v8_ON 2 1  
**************************************  
*      Model Generated by MODPEX     *  
*Copyright(c) Symmetry Design Systems*  
*         All Rights Reserved        *  
*    UNPUBLISHED LICENSED SOFTWARE   *  
*   Contains Proprietary Information *  
*      Which is The Property of      *  
*     SYMMETRY OR ITS LICENSORS      *  
*Commercial Use or Resale Restricted *  
*   by Symmetry License Agreement    *  
**************************************  
* Model generated on Apr 23, 98  
* MODEL FORMAT: SPICE3  
*     anode cathode  
*node: 2      1  
*    Forward Section
D1 2 1 MD1
.MODEL MD1 D IS=1.53197e-14 N=1.05719 XTI=1 RS=1.14  
+ CJO=1.1e-10 TT=1e-08 T_Measured=25
*    Leakage Current
R 1 2 MDR 4e+06
.MODEL MDR RES TC1=0 TC2=0  
*    Breakdown
RZ 2 3 2.18129
IZG 4 3 0.036
R4 4 3 225
D3 3 4 MD3
.MODEL MD3 D IS=2.5e-12 N=0.22602 XTI=0 EG=0.1 T_Measured=25
D2 5 4 MD2
.MODEL MD2 D IS=2.5e-12 N=0.412385 XTI=0 EG=0.1 T_Measured=25
EV1 1 5 6 0 1
IBV 0 6 0.001
RBV 6 0 MDRBV 6696.65
.MODEL MDRBV RES TC1=0.000507716  
*-- SPICE3 DIODE MODEL DEFAULT PARAMETER  
*  VALUES ARE ASSUMED  
*IS=1E-14 RS=0 N=1 TT=0 CJO=0  
*VJ=1 M=0.5 EG=1.11 XTI=3 FC=0.5  
*KF=0 AF=1 BV=inf IBV=1e-3 TNOM=27
.ENDS bzx84c6v8_ON
.SUBCKT dta114eet1_ON 1 2 3   
**************************************  
*      Model Generated by MODPEX     *  
*Copyright(c) Symmetry Design Systems*  
*         All Rights Reserved        *  
*    UNPUBLISHED LICENSED SOFTWARE   *  
*   Contains Proprietary Information *  
*      Which is The Property of      *  
*     SYMMETRY OR ITS LICENSORS      *  
*Commercial Use or Resale Restricted *  
*   by Symmetry License Agreement    *  
**************************************  
* BRT macro model  
* External node   
* Node 1 -> BRT_C  
* Node 2 -> BRT_B  
* Node 3 -> BRT_E
QOUT 1 4 3 qmodel
R1   2 4 10000
R2   4 3 10000
.MODEL qmodel pnp  
+IS=1.45353e-14 BF=201.578 NF=1.0689 VAF=70.4157  
+IKF=0.0937743 ISE=2.69024e-15 NE=1.8994 BR=2.30273  
+NR=1.09444 VAR=176.711 IKR=0.0680789 ISC=9.08823e-14  
+NC=2.62106 RB=9.97124 IRB=0.2 RBM=9.97124  
+RE=0.0654023 RC=1.54896 XTB=0.103329 XTI=3.04909 EG=1.206  
+CJE=2.55801e-12 VJE=0.746499 MJE=0.333828 TF=1e-09  
+XTF=1 VTF=10 ITF=0.01 CJC=3.07272e-12  
+VJC=1.04014 MJC=0.170789 XCJC=0.9 FC=0.5
.ENDS
.SUBCKT dta114erlra_ON 1 2 3 
**************************************  
*      Model Generated by MODPEX     *  
*Copyright(c) Symmetry Design Systems*  
*         All Rights Reserved        *  
*    UNPUBLISHED LICENSED SOFTWARE   *  
*   Contains Proprietary Information *  
*      Which is The Property of      *  
*     SYMMETRY OR ITS LICENSORS      *  
*Commercial Use or Resale Restricted *  
*   by Symmetry License Agreement    *  
**************************************  
* BRT macro model  
* External node   
* Node 1 -> BRT_C  
* Node 2 -> BRT_B  
* Node 3 -> BRT_E
QOUT 1 4 3 qmodel
R1   2 4 10000
R2   4 3 10000
.MODEL qmodel pnp  
+IS=1.24115e-14 BF=217.078 NF=1.06513 VAF=70.9109  
+IKF=0.0638166 ISE=2.66819e-15 NE=1.90388 BR=2.28907  
+NR=1.09189 VAR=176.744 IKR=0.070362 ISC=9.08811e-14  
+NC=2.62109 RB=9.97095 IRB=0.2 RBM=9.97095  
+RE=0.0572462 RC=1.58164 XTB=0.10139 XTI=3.05315 EG=1.206  
+CJE=2.55801e-12 VJE=0.746499 MJE=0.333828 TF=1e-09  
+XTF=1 VTF=10 ITF=0.01 CJC=3.07272e-12  
+VJC=1.04014 MJC=0.170789 XCJC=0.9 FC=0.5
.ENDS
.SUBCKT dta114tet1_ON 1 2 3 
**************************************  
*      Model Generated by MODPEX     *  
*Copyright(c) Symmetry Design Systems*  
*         All Rights Reserved        *  
*    UNPUBLISHED LICENSED SOFTWARE   *  
*   Contains Proprietary Information *  
*      Which is The Property of      *  
*     SYMMETRY OR ITS LICENSORS      *  
*Commercial Use or Resale Restricted *  
*   by Symmetry License Agreement    *  
**************************************  
* BRT macro model  
* External node   
* Node 1 -> BRT_C  
* Node 2 -> BRT_B  
* Node 3 -> BRT_E
QOUT 1 4 3 qmodel
R1   2 4 10000
R2   4 3 1e+12
.MODEL qmodel pnp  
+IS=2.15531e-13 BF=303.07 NF=1.14286 VAF=110.379  
+IKF=0.119572 ISE=5.51785e-15 NE=4 BR=0.256354  
+NR=1.32882 VAR=96.2336 IKR=0.000300419 ISC=6.26992e-15  
+NC=1.99009 RB=9.88918 IRB=0.17941 RBM=0.979013  
+RE=3.98528 RC=0.001 XTB=0.100541 XTI=3.27715 EG=1.206  
+CJE=1.055e-11 VJE=0.750034 MJE=0.329967 TF=1e-09  
+XTF=1 VTF=10 ITF=0.01 CJC=9.48712e-12  
+VJC=0.0212146 MJC=0.20322 XCJC=0.9 FC=0.5
.ENDS
.SUBCKT dta114trlra_ON 1 2 3 
**************************************  
*      Model Generated by MODPEX     *  
*Copyright(c) Symmetry Design Systems*  
*         All Rights Reserved        *  
*    UNPUBLISHED LICENSED SOFTWARE   *  
*   Contains Proprietary Information *  
*      Which is The Property of      *  
*     SYMMETRY OR ITS LICENSORS      *  
*Commercial Use or Resale Restricted *  
*   by Symmetry License Agreement    *  
**************************************  
* BRT macro model  
* External node   
* Node 1 -> BRT_C  
* Node 2 -> BRT_B  
* Node 3 -> BRT_E
QOUT 1 4 3 qmodel
R1   2 4 10000
R2   4 3 1e+12
.MODEL qmodel pnp  
+IS=2.15531e-13 BF=303.07 NF=1.14286 VAF=110.379  
+IKF=0.119572 ISE=5.51785e-15 NE=4 BR=0.256354  
+NR=1.32882 VAR=96.2336 IKR=0.000300419 ISC=6.26992e-15  
+NC=1.99009 RB=9.88918 IRB=0.17941 RBM=0.979013  
+RE=3.98528 RC=0.001 XTB=0.100541 XTI=3.27715 EG=1.206  
+CJE=1.0394e-11 VJE=0.750033 MJE=0.329968 TF=1e-09  
+XTF=1 VTF=10 ITF=0.01 CJC=9.54334e-12  
+VJC=0.0210543 MJC=0.203894 XCJC=0.9 FC=0.5
.ENDS
.SUBCKT dta114yet1_ON 1 2 3 
**************************************  
*      Model Generated by MODPEX     *  
*Copyright(c) Symmetry Design Systems*  
*         All Rights Reserved        *  
*    UNPUBLISHED LICENSED SOFTWARE   *  
*   Contains Proprietary Information *  
*      Which is The Property of      *  
*     SYMMETRY OR ITS LICENSORS      *  
*Commercial Use or Resale Restricted *  
*   by Symmetry License Agreement    *  
**************************************  
* BRT macro model  
* External node   
* Node 1 -> BRT_C  
* Node 2 -> BRT_B  
* Node 3 -> BRT_E
QOUT 1 4 3 qmodel
R1   2 4 10000
R2   4 3 47000
.MODEL qmodel pnp  
+IS=1.35214e-12 BF=127.637 NF=1.29186 VAF=13.1568  
+IKF=0.0566399 ISE=1e-16 NE=1.52381 BR=1.83217  
+NR=1.35146 VAR=93.9316 IKR=0.311165 ISC=1e-16  
+NC=1.42961 RB=49.4463 IRB=0.2 RBM=10  
+RE=0.000114388 RC=1.98947 XTB=0.499149 XTI=3.02497 EG=1.05032  
+CJE=4.15456e-12 VJE=0.747361 MJE=0.332883 TF=1e-09  
+XTF=1 VTF=10 ITF=0.01 CJC=4.43596e-12  
+VJC=0.0935338 MJC=0.132163 XCJC=0.9 FC=0.5
.ENDS
.SUBCKT dta114yrlra_ON 1 2 3 
**************************************  
*      Model Generated by MODPEX     *  
*Copyright(c) Symmetry Design Systems*  
*         All Rights Reserved        *  
*    UNPUBLISHED LICENSED SOFTWARE   *  
*   Contains Proprietary Information *  
*      Which is The Property of      *  
*     SYMMETRY OR ITS LICENSORS      *  
*Commercial Use or Resale Restricted *  
*   by Symmetry License Agreement    *  
**************************************  
* BRT macro model  
* External node   
* Node 1 -> BRT_C  
* Node 2 -> BRT_B  
* Node 3 -> BRT_E
QOUT 1 4 3 qmodel
R1   2 4 10000
R2   4 3 47000
.MODEL qmodel pnp  
+IS=1.35212e-12 BF=127.636 NF=1.29185 VAF=13.1569  
+IKF=0.0566391 ISE=1e-16 NE=1.52381 BR=1.83217  
+NR=1.35146 VAR=93.9316 IKR=0.311164 ISC=1e-16  
+NC=1.42961 RB=49.4463 IRB=0.2 RBM=10  
+RE=0.000114388 RC=1.98946 XTB=0.499149 XTI=3.02497 EG=1.05032  
+CJE=4.15456e-12 VJE=0.747361 MJE=0.332883 TF=1e-09  
+XTF=1 VTF=10 ITF=0.01 CJC=4.43596e-12  
+VJC=0.0935338 MJC=0.132163 XCJC=0.9 FC=0.5
.ENDS
.SUBCKT dta124eet1_ON 1 2 3 
**************************************  
*      Model Generated by MODPEX     *  
*Copyright(c) Symmetry Design Systems*  
*         All Rights Reserved        *  
*    UNPUBLISHED LICENSED SOFTWARE   *  
*   Contains Proprietary Information *  
*      Which is The Property of      *  
*     SYMMETRY OR ITS LICENSORS      *  
*Commercial Use or Resale Restricted *  
*   by Symmetry License Agreement    *  
**************************************  
* BRT macro model  
* External node   
* Node 1 -> BRT_C  
* Node 2 -> BRT_B  
* Node 3 -> BRT_E
QOUT 1 4 3 qmodel
R1   2 4 22000
R2   4 3 22000
.MODEL qmodel pnp  
+IS=1.48296e-13 BF=297.61 NF=0.801599 VAF=16.4474  
+IKF=0.0231067 ISE=2.21742e-12 NE=1.19976 BR=1.06634  
+NR=0.843953 VAR=100.032 IKR=0.0963899 ISC=9.99994e-14  
+NC=2.00001 RB=9.92467 IRB=0.2 RBM=0.992467  
+RE=0.243946 RC=2.51025 XTB=0.484956 XTI=2.9904 EG=1.05  
+CJE=2.55845e-13 VJE=0.746252 MJE=0.334094 TF=1e-09  
+XTF=1 VTF=10 ITF=0.01 CJC=3.2577e-12  
+VJC=1.11327 MJC=0.193646 XCJC=0.9 FC=0.5
.ENDS
.SUBCKT dta124erlra_ON 1 2 3 
**************************************  
*      Model Generated by MODPEX     *  
*Copyright(c) Symmetry Design Systems*  
*         All Rights Reserved        *  
*    UNPUBLISHED LICENSED SOFTWARE   *  
*   Contains Proprietary Information *  
*      Which is The Property of      *  
*     SYMMETRY OR ITS LICENSORS      *  
*Commercial Use or Resale Restricted *  
*   by Symmetry License Agreement    *  
**************************************  
* BRT macro model  
* External node   
* Node 1 -> BRT_C  
* Node 2 -> BRT_B  
* Node 3 -> BRT_E
QOUT 1 4 3 qmodel
R1   2 4 22000
R2   4 3 22000
.MODEL qmodel pnp  
+IS=1.48296e-13 BF=297.61 NF=0.801599 VAF=16.4474  
+IKF=0.0231067 ISE=2.21742e-12 NE=1.19976 BR=1.06634  
+NR=0.843953 VAR=100.032 IKR=0.0963899 ISC=9.99994e-14  
+NC=2.00001 RB=9.92467 IRB=0.2 RBM=0.992467  
+RE=0.243946 RC=2.51025 XTB=0.484956 XTI=2.9904 EG=1.05  
+CJE=2.55845e-13 VJE=0.746252 MJE=0.334094 TF=1e-09  
+XTF=1 VTF=10 ITF=0.01 CJC=3.2577e-12  
+VJC=1.11327 MJC=0.193646 XCJC=0.9 FC=0.5
.ENDS
.SUBCKT dta144erlra_ON 1 2 3 
**************************************  
*      Model Generated by MODPEX     *  
*Copyright(c) Symmetry Design Systems*  
*         All Rights Reserved        *  
*    UNPUBLISHED LICENSED SOFTWARE   *  
*   Contains Proprietary Information *  
*      Which is The Property of      *  
*     SYMMETRY OR ITS LICENSORS      *  
*Commercial Use or Resale Restricted *  
*   by Symmetry License Agreement    *  
**************************************  
* BRT macro model  
* External node   
* Node 1 -> BRT_C  
* Node 2 -> BRT_B  
* Node 3 -> BRT_E
QOUT 1 4 3 qmodel
R1   2 4 47000
R2   4 3 47000
.MODEL qmodel pnp  
+IS=2.90186e-14 BF=618.444 NF=0.999526 VAF=15.0621  
+IKF=0.0187027 ISE=2.45494e-12 NE=1.63322 BR=3.86242  
+NR=1.02544 VAR=101.182 IKR=0.0397529 ISC=9.88265e-14  
+NC=2.07495 RB=9.94583 IRB=0.2 RBM=9.94583  
+RE=2.23624 RC=1.5403 XTB=0.384119 XTI=3.00248 EG=1.206  
+CJE=3.76112e-12 VJE=0.677197 MJE=0.408132 TF=1e-09  
+XTF=1 VTF=10 ITF=0.01 CJC=1.06423e-12  
+VJC=14.7182 MJC=0.9 XCJC=0.9 FC=0.5
.ENDS
.SUBCKT dtc114eet1_ON 1 2 3 
**************************************  
*      Model Generated by MODPEX     *  
*Copyright(c) Symmetry Design Systems*  
*         All Rights Reserved        *  
*    UNPUBLISHED LICENSED SOFTWARE   *  
*   Contains Proprietary Information *  
*      Which is The Property of      *  
*     SYMMETRY OR ITS LICENSORS      *  
*Commercial Use or Resale Restricted *  
*   by Symmetry License Agreement    *  
**************************************  
* BRT macro model  
* External node   
* Node 1 -> BRT_C  
* Node 2 -> BRT_B  
* Node 3 -> BRT_E
QOUT 1 4 3 qmodel
R1   2 4 10000
R2   4 3 10000
.MODEL qmodel npn  
+IS=9.61594e-14 BF=318.052 NF=1.06247 VAF=32.3273  
+IKF=0.0928873 ISE=8.02036e-13 NE=2.04618 BR=0.899718  
+NR=1.17201 VAR=79.4241 IKR=0.095804 ISC=9.99856e-14  
+NC=1.99883 RB=9.97272 IRB=0.197789 RBM=0.995264  
+RE=0.000100008 RC=2.36555 XTB=0.477497 XTI=2.99884 EG=1.14831  
+CJE=6.54142e-13 VJE=0.744916 MJE=0.335535 TF=1e-09  
+XTF=1 VTF=10 ITF=0.01 CJC=3.57128e-12  
+VJC=47.8278 MJC=0.9 XCJC=0.9 FC=0.5
.ENDS
.SUBCKT dtc114yet1_ON 1 2 3 
**************************************  
*      Model Generated by MODPEX     *  
*Copyright(c) Symmetry Design Systems*  
*         All Rights Reserved        *  
*    UNPUBLISHED LICENSED SOFTWARE   *  
*   Contains Proprietary Information *  
*      Which is The Property of      *  
*     SYMMETRY OR ITS LICENSORS      *  
*Commercial Use or Resale Restricted *  
*   by Symmetry License Agreement    *  
**************************************  
* BRT macro model  
* External node   
* Node 1 -> BRT_C  
* Node 2 -> BRT_B  
* Node 3 -> BRT_E
QOUT 1 4 3 qmodel
R1   2 4 10000
R2   4 3 47000
.MODEL qmodel npn  
+IS=5.4752e-13 BF=274.662 NF=1.27625 VAF=73.3962  
+IKF=0.166492 ISE=1e-16 NE=4 BR=0.849547  
+NR=1.41353 VAR=353.997 IKR=4.72811 ISC=1.00036e-16  
+NC=4 RB=11.4602 IRB=0.2 RBM=10  
+RE=0.000100042 RC=1.2557 XTB=0.10002 XTI=3.33565 EG=1.05  
+CJE=6.30754e-12 VJE=0.748168 MJE=0.332003 TF=1e-09  
+XTF=1 VTF=10 ITF=0.01 CJC=4.07415e-12  
+VJC=0.267693 MJC=0.139968 XCJC=0.9 FC=0.5
.ENDS
.SUBCKT dtc114yrlra_ON 1 2 3 
**************************************  
*      Model Generated by MODPEX     *  
*Copyright(c) Symmetry Design Systems*  
*         All Rights Reserved        *  
*    UNPUBLISHED LICENSED SOFTWARE   *  
*   Contains Proprietary Information *  
*      Which is The Property of      *  
*     SYMMETRY OR ITS LICENSORS      *  
*Commercial Use or Resale Restricted *  
*   by Symmetry License Agreement    *  
**************************************  
* BRT macro model  
* External node   
* Node 1 -> BRT_C  
* Node 2 -> BRT_B  
* Node 3 -> BRT_E
QOUT 1 4 3 qmodel
R1   2 4 10000
R2   4 3 47000
.MODEL qmodel npn  
+IS=5.4752e-13 BF=274.662 NF=1.27625 VAF=73.3962  
+IKF=0.166492 ISE=1e-16 NE=4 BR=0.849547  
+NR=1.41353 VAR=353.997 IKR=4.72811 ISC=1.00036e-16  
+NC=4 RB=11.4602 IRB=0.2 RBM=10  
+RE=0.000100042 RC=1.2557 XTB=0.10002 XTI=3.33565 EG=1.05  
+CJE=6.30754e-12 VJE=0.748168 MJE=0.332003 TF=1e-09  
+XTF=1 VTF=10 ITF=0.01 CJC=4.07415e-12  
+VJC=0.267693 MJC=0.139968 XCJC=0.9 FC=0.5
.ENDS
.SUBCKT dtc124erlra_ON 1 2 3 
**************************************  
*      Model Generated by MODPEX     *  
*Copyright(c) Symmetry Design Systems*  
*         All Rights Reserved        *  
*    UNPUBLISHED LICENSED SOFTWARE   *  
*   Contains Proprietary Information *  
*      Which is The Property of      *  
*     SYMMETRY OR ITS LICENSORS      *  
*Commercial Use or Resale Restricted *  
*   by Symmetry License Agreement    *  
**************************************  
* BRT macro model  
* External node   
* Node 1 -> BRT_C  
* Node 2 -> BRT_B  
* Node 3 -> BRT_E
QOUT 1 4 3 qmodel
R1   2 4 22000
R2   4 3 22000
.MODEL qmodel npn  
+IS=8.38182e-14 BF=391.043 NF=1.23872 VAF=23.6405  
+IKF=0.0862729 ISE=1e-16 NE=1.79966 BR=0.778367  
+NR=1.3733 VAR=102.425 IKR=0.0975384 ISC=9.81319e-14  
+NC=1.97115 RB=9.98732 IRB=0.2 RBM=9.98732  
+RE=0.000100007 RC=2.00128 XTB=0.432465 XTI=2.99938 EG=1.0861  
+CJE=1.04819e-13 VJE=0.745448 MJE=0.33498 TF=1e-09  
+XTF=1 VTF=10 ITF=0.01 CJC=3.28042e-12  
+VJC=1.83603 MJC=0.295425 XCJC=0.9 FC=0.5
.ENDS