********
*         (C) COPYRIGHT LINEAR TECHNOLOGY CORPORATION 1993
*                       All rights reserved.
* 
*   Linear Technology Corporation hereby grants the users of this
* macromodel a non-exclusive, nontransferrable license to use this
*            macromodel under the following conditions:
* 
* The user agrees that this macromodel is licensed from Linear
* Technology and agrees that the macromodel may be used, loaned,
* given away or included in other model libraries as long as this
* notice and the model in its entirety and unchanged is included.
* No right to make derivative works or modifications to the
* macromodel is granted hereby.  All such rights are reserved.
* 
* This model is provided as is.  Linear Technology makes no
* warranty, either expressed or implied about the suitability or
* fitness of this model for any particular purpose.  In no event
* will Linear Technology be liable for special, collateral,
* incidental or consequential damages in connection with or arising
* out of the use of this macromodel.  It should be remembered that
* models are a simplification of the actual circuit.
* 
* Linear Technology reserves the right to change these macromodels
* without prior notice.  Contact Linear Technology at 1630 McCarthy
* Blvd., Milpitas, CA, 95035-7487 or telephone 408/432-1900 for
* datasheets on the actual amplifiers or the latest macromodels.
* 
*******
*SRC=LT1187;LT1187;Opamps;LT-"LTxxx";
*SYM=LTOPAMP 
* Linear Technology LT1187 op amp model  
* Written: 12-02-1992 15:32:08 Type: Bipolar NPN input, internal comp.
* Typical specs: 
* Vos=2.0E-03, Ib=0.5E-6, Ios=0.2E-6, GBP=5.0E+07Hz, Phase mar.= 40 deg, 
* SR(-)=1.7E+02V/us, SR(+)=1.7E+02V/us, Av= 77.0dB, CMRR=100.0dB, 
* Vsat(+)=1.000V, Vsat(-)=0.500V, Isc=+35/-35mA, Rout=  10ohms, Iq=%12.00mA.
* 
* Connections: + - V+V-O 
.SUBCKT LT1187 3 2 7 4 6 REF FB
*LT1187 FRONT END* 
RL1A 7 1A 500
RL2A 7 5A 500
RE1A 9A 10A 1143
RE2A 6A 8A 1150
I1 9A 4 DC 234UA
I2 10A 4 DC 234UA
I3 6A 4 DC 245UA
I4 8A 4 DC 245UA
Q1A 1A 3 9A MOD1
Q2A 5A 2 10A MOD2
Q3A 1A REF 6A MOD1
Q4A 5A FB 8A MOD2
RCM1 9A 0 10MEG
RCM2 6A 0 10MEG
CCM1 9A 0 .4PF
CCM2 6A 0 .4PF
CIN1 2 3 2PF
CIN2 REF FB 2PF
.MODEL MOD1 NPN BF=500 IS=1.00E-16
.MODEL MOD2 NPN BF 550 IS=1.04E-16
***
* INPUT
RC1 7  80 8.8419E+01
RC2 7  90 8.8419E+01
Q1  80 1A  10 QM1 
Q2  90 5A  11 QM2 
CIN 2  3  1.0000E-13
C1  80 90 1.5000E-11
RE1 10 12 7.8281E+01
RE2 11 12 7.8281E+01
IEE 12 4  5.1000E-03
RE  12 0  3.9216E+04
* INTERMEDIATE 
GCM 0  8  12 0  2.2566E-08
GA  8  0  80 90 1.1310E-02
R2  8  0  1.0000E+05
C2  1  8  18.000E-12
GB  1  0  8  0  9.8244E-01
RO2 1  0  9.0000E+00
* OUTPUT 
RSO 1  6  1.0000E+00
ECL 18 0  1  6  2.8561E+01
GCL 0  8  20 0  1.0000E+00
RCL 20 0  1.0000E+01
D1  18 19 DM1  
VOD1 19 20 0.0000E+00
D2  20 21 DM1  
VOD2 21 18 0.0000E+00
* 
D3A 131 70 DM3 
D3B 13 131 DM3 
GPL 0  8  70 7  1.0000E+00
VC  13 6  2.5416E+00
RPLA 7  70 1.0000E+01
RPLB 7  131 1.0000E+03
D4A 60 141 DM3 
D4B 141 14  DM3 
GNL 0  8  60 4  1.0000E+00
VE  6  14 2.0416E+00
RNLA 60 4  1.0000E+01
RNLB 141 4  1.0000E+03
* 
IP  7  4  6.9000E-03
DSUB 4  7  DM2  
* MODELS 
.MODEL QM1 NPN (IS=8.0000E-16 BF=1.7000E+09)
.MODEL QM2 NPN (IS=8.0003E-16 BF=5.1000E+09)
.MODEL DM1  D   (IS=1.0000E-20)
.MODEL DM2  D   (IS=8.0000E-16 BV=2.1600E+01)
.MODEL DM3  D   (IS=1.0000E-16)
.ENDS LT1187
* - - - - - * fini LT1187 * - - - - - * [oamm vn02 10/29/90]
********
*SRC=LT1189;LT1189;Opamps;LT-"LTxxx";
*SYM=LTOPAMP 
*
* Linear Technology LT1189 op amp model  
* Written: 12-03-1992 15:08:02 Type: Bipolar NPN input, internal comp.
* Typical specs: 
* Vos=1.0E-03, Ib=0.5E-6, Ios=0.2E-6, GBP=2.0E+08Hz, Phase mar.= 60 deg, 
* SR(-)=2.2E+02V/us, SR(+)=2.2E+02V/us, Av= 85.0dB, CMRR=105.0dB, 
* Vsat(+)=1.000V, Vsat(-)=0.500V, Isc=+35/-35mA, Rout=  10ohms, Iq=%12.00mA.
* 
* Connections: + - V+V-O 
.SUBCKT LT1189 3 2 7 4 6 REF FB
*LT1189 FRONT END*
RL1A 7 1A 500
RL2A 7 5A 500
RE1A 9A 10A 295
RE2A 6A 8A 300
I1 9A 4 DC 234UA
I2 10A 4 DC 234UA
I3 6A 4 DC 245UA
I4 8A 4 DC 245UA
Q1A 1A 3 9A MOD1
Q2A 5A 2 10A MOD2
Q3A 1A REF 6A MOD1
Q4A 5A FB 8A MOD2
RCM1 9A 0 10MEG
RCM2 6A 0 10MEG
CCM1 9A 0 .2PF
CCM2 6A 0 .2PF
CIN1 2 3 2PF
CIN2 REF FB 2PF
.MODEL MOD1 NPN BF=500 IS=1.00E-16
.MODEL MOD2 NPN BF=550 IS=1.04E-16
**
* INPUT
RC1 7  80 3.5368E+01
RC2 7  90 3.5368E+01
Q1  80 1A  10 QM1 
Q2  90 5A  11 QM2 
CIN 2  3  1.0000E-13
C1  80 90 4.1212E-11
RE1 10 12 3.1059E+01
RE2 11 12 3.1059E+01
IEE 12 4  1.2000E-02
RE  12 0  1.6667E+04
* INTERMEDIATE 
GCM 0  8  12 0  5.6415E-08
GA  8  0  80 90 2.8274E-02
R2  8  0  1.0000E+05
C2  1  8  25.0000E-12
GB  1  0  8  0  3.5024E-01
RO2 1  0  9.0000E+00
* OUTPUT 
RSO 1  6  1.0000E+00
ECL 18 0  1  6  2.9390E+01
GCL 0  8  20 0  1.0000E+00
RCL 20 0  1.0000E+01
D1  18 19 DM1  
VOD1 19 20 0.0000E+00
D2  20 21 DM1  
VOD2 21 18 0.0000E+00
* 
D3A 131 70 DM3 
D3B 13 131 DM3 
GPL 0  8  70 7  1.0000E+00
VC  13 6  2.5822E+00
RPLA 7  70 1.0000E+01
RPLB 7  131 1.0000E+03
D4A 60 141 DM3 
D4B 141 14  DM3 
GNL 0  8  60 4  1.0000E+00
VE  6  14 2.0822E+00
RNLA 60 4  1.0000E+01
RNLB 141 4  1.0000E+03
* 
IP  7  4  1.3970E-09
DSUB 4  7  DM2  
* MODELS 
.MODEL QM1 NPN (IS=8.0000E-16 BF=4.0000E+09)
.MODEL QM2 NPN (IS=8.0003E-16 BF=1.2000E+10)
.MODEL DM1  D   (IS=1.0000E-20)
.MODEL DM2  D   (IS=8.0000E-16 BV=2.1600E+01)
.MODEL DM3  D   (IS=1.0000E-16)
.ENDS LT1189
* 
* - - - - - * FINI LT1189 * - - - - - * [OAMM VN02 10/29/90]
********
*SRC=LT118A;LT118A;Opamps;LT-"LTxxx";
*SYM=LTOPAMP 
* 
* Linear Technology LT118A op amp model (with calls for LT318A)
* Written: 11-21-1989 Type: Bipolar npn input, internal comp.
* LT118A updated from original model on 05-22-1990
* Typical specs: 
*       Ref. LT118A/LT318A data sheet, LTC 1990 databook p2-311
* Comments:
*       Uses extended phase compensation; input differential mode clamp.
* 
* Connections: + - V+V-O 
.SUBCKT LT118A 3 2 7 4 6
* INPUT
RC1 7 80 7.074E+02
RC2 7 90 7.074E+02
Q1 80 2 10 QM1 
Q2 90 3 11 QM1
*
C1 80 91 300E-12
RXC1 91 90 1E3
CXC1 91 90 15E-12
C2 1 8 5.000E-12
*
RB1 2 102 1.0000E+00
RB2 3 103 1.0000E+00
DDM1 102 104 DM2 
VZ1 104 103 5.5 
DDM2 103 105 DM2 
VZ2 105 102 5.5 
RE1 10 12 6.209E+02
RE2 11 12 6.209E+02
IEE 12 4 6.000E-04
RE 12 0 3.332E+05
CE 12 0 2.632E-13
*
GCM 0 8 12 0 1.414E-08
GA 8 0 80 90 1.414E-03
R2 8 0 1.000E+05
GB 1 0 8 0 5.318E+01
RO2 1 0 7.4000E+01
*
RS 1 6 1
ECL 18 0 1 6 3.172E+01
GCL 0 8 20 0 1
RCL 20 0 1E3
D1 18 20 DM1
D2 20 18 DM1
*
D3A 131 70 DM3
D3B 13 131 DM3
GPL 0 8 70 7 1
VC 13 6 3.6473
RPLA 7 70 1E4
RPLB 7 131 1E5
D4A 60 141 DM3
D4B 141 14 DM3
GNL 0 8 60 4 1
VE 6 14 3.6473
RNLA 60 4 1E4
RNLB 141 4 1E5
*
IP 7 4 4.400E-03
DSUB 4 7 DM2 
* MODELS 
.MODEL QM1 NPN (IS=8.000E-16 BF=2.439E+03)
.MODEL QM2 NPN (IS=8.157E-16 BF=2.564E+03)
*
.MODEL DM1 D (IS=1.000E-19)
.MODEL DM2 D (IS=8.000E-16)
.MODEL DM3 D (IS=1.000E-20)
.ENDS LT118A
*
.SUBCKT LT318A 3 2 7 4 6
X_LT318A 3 2 7 4 6 LT118A
.ENDS LT318A
*
* - - - - - * FINI LT118A FAMILY * - - - - - *
*******
*SRC=LT1190;LT1190;Opamps;LT-"LTxxx";
*SYM=LTOPAMP 
* 
* Linear Technology LT1190 op amp model  
* Written: 11-19-1992 10:39:56 Type: Bipolar NPN input, internal comp.
* Typical specs: 
* Vos=3.0E-03, Ib=5.0E-07, Ios=2.0E-07, GBP=5.0E+07Hz, Phase mar.= 75 deg, 
* SR(-)=4.5E+02V/us, SR(+)=4.5E+02V/us, Av= 80.0dB, CMRR= 70.0dB, 
* Vsat(+)=1.000V, Vsat(-)=0.500V, Isc=+85/-%100mA, Rout=   3ohms, Iq=%32.00mA.
* 
* Connections: + - V+V-O 
.SUBCKT LT1190 3 2 7 4 6 
* INPUT
RC1 7  80 9.6458E+01
RC2 7  90 9.6458E+01
Q1  80 2  10 QM1 
Q2  90 3  11 QM2 
CIN 2  3  2.2000E-12
C1  80 90 4.0192E-12
*
CXC1 80 80A 10PF
RXR1 80A 90 500
*
RE1 10 12 9.3801E+01
RE2 11 12 9.3801E+01
IEE 12 4  1.9501E-02
RE  12 0  1.0256E+04
* INTERMEDIATE 
GCM 0  8  12 0  3.2784E-06
GA  8  0  80 90 1.0367E-02
R2  8  0  1.0000E+05
C2  1  8  3.0000E-11
GB  1  0  8  0  6.4305E+00
RO2 1  0  1.5000E+00
* OUTPUT 
RSO 1  6  1.0000E+00
ECL 18 0  1  6  1.2338E+01
GCL 0  8  20 0  1.0000E+00
RCL 20 0  1.0000E+01
D1  18 19 DM1  
VOD1 19 20 0.0000E+00
D2  20 21 DM1  
VOD2 21 18 1.8507E-01
* 
D3A 131 70 DM3 
D3B 13 131 DM3 
GPL 0  8  70 7  1.0000E+00
VC  13 6  2.6107E+00
RPLA 7  70 1.0000E+01
RPLB 7  131 1.0000E+03
D4A 60 141 DM3 
D4B 141 14  DM3 
GNL 0  8  60 4  1.0000E+00
VE  6  14 2.1107E+00
RNLA 60 4  1.0000E+01
RNLB 141 4  1.0000E+03
* 
IP  7  4  1.2499E-02
DSUB 4  7  DM2  
* MODELS 
.MODEL QM1 NPN (IS=8.0000E-16 BF=1.6250E+04)
.MODEL QM2 NPN (IS=8.9844E-16 BF=2.4375E+04)
.MODEL DM1  D   (IS=1.0000E-20)
.MODEL DM2  D   (IS=8.0000E-16 BV=2.1600E+01)
.MODEL DM3  D   (IS=1.0000E-16)
.ENDS LT1190
* 
* - - - - - * fini LT1190 * - - - - - * [oamm vn02 10/29/90]
********
*SRC=LT1191;LT1191;Opamps;LT-"LTxxx";
*SYM=LTOPAMP 
* 
* Linear Technology LT1191 op amp model  
* Written: 11-19-1992 11:47:41 Type: Bipolar NPN input, internal comp.
* Typical specs: 
* Vos=1.0E-03, Ib=5.0E-07, Ios=2.0E-07, GBP=9.0E+07Hz, Phase mar.= 45 deg, 
* SR(-)=4.5E+02V/us, SR(+)=4.5E+02V/us, Av= 86.0dB, CMRR= 75.0dB, 
* Vsat(+)=1.000V, Vsat(-)=0.500V, Isc=+85/-%100mA, Rout=   3ohms, Iq=%32.00mA.
* 
* Connections: + - V+V-O 
.SUBCKT LT1191 3 2 7 4 6 
* INPUT
RC1 7  80 5.3052E+01
RC2 7  90 5.3052E+01
Q1  80 2  10 QM1 
Q2  90 3  11 QM2 
CIN 2  3  2.0000E-12
C1  80 90 1.5000E-11
*
CXC1 80 80A 10PF
RXR1 80A 90 250
*
RE1 10 12 5.0177E+01
RE2 11 12 5.0177E+01
IEE 12 4  1.8001E-02
RE  12 0  1.1110E+04
* INTERMEDIATE 
GCM 0  8  12 0  3.3520E-06
GA  8  0  80 90 1.8850E-02
R2  8  0  1.0000E+05
C2  1  8  3.0000E-11
GB  1  0  8  0  7.0568E+00
RO2 1  0  1.5000E+00
* OUTPUT 
RSO 1  6  1.0000E+00
ECL 18 0  1  6  1.2296E+01
GCL 0  8  20 0  1.0000E+00
RCL 20 0  1.0000E+01
D1  18 19 DM1  
VOD1 19 20 0.0000E+00
D2  20 21 DM1  
VOD2 21 18 1.8444E-01
* 
D3A 131 70 DM3 
D3B 13 131 DM3 
GPL 0  8  70 7  1.0000E+00
VC  13 6  2.6057E+00
RPLA 7  70 1.0000E+01
RPLB 7  131 1.0000E+03
D4A 60 141 DM3 
D4B 141 14  DM3 
GNL 0  8  60 4  1.0000E+00
VE  6  14 2.1057E+00
RNLA 60 4  1.0000E+01
RNLB 141 4  1.0000E+03
* 
IP  7  4  1.3999E-02
DSUB 4  7  DM2  
* MODELS 
.MODEL QM1 NPN (IS=8.0000E-16 BF=1.5000E+04)
.MODEL QM2 NPN (IS=8.3155E-16 BF=2.2500E+04)
.MODEL DM1  D   (IS=1.0000E-20)
.MODEL DM2  D   (IS=8.0000E-16 BV=2.1600E+01)
.MODEL DM3  D   (IS=1.0000E-16)
.ENDS LT1191
* 
* - - - - - * FINI LT1191 * - - - - - * [OAMM VN02 10/29/90]
********
*SRC=LT1192;LT1192;Opamps;LT-"LTxxx";
*SYM=LTOPAMP 
*
* Linear Technology LT1192 op amp model  
* Written: 11-19-1992 17:05:43 Type: Bipolar NPN input, internal comp.
* Typical specs: 
* Vos=2.0E-04, Ib=5.0E-07, Ios=2.0E-07, GBP=3.5E+08Hz, Phase mar.= 45 deg, 
* SR(-)=4.5E+02V/us, SR(+)=4.5E+02V/us, Av= 92.0dB, CMRR= 85.0dB, 
* Vsat(+)=1.000V, Vsat(-)=0.500V, Isc=+85/-%100mA, Rout=   3ohms, Iq=%32.00mA.
* 
* Connections: + - V+V-O 
.SUBCKT LT1192 3 2 7 4 6 
* INPUT
RC1 7  80 1.1789E+01
RC2 7  90 1.1789E+01
Q1  80 2  10 QM1 
Q2  90 3  11 QM2 
CIN 2  3  1.8000E-12
C1  80 90 5.5981E-11
RE1 10 12 8.6552E+00
RE2 11 12 8.6552E+00
IEE 12 4  1.6501E-02
RE  12 0  1.2120E+04
* INTERMEDIATE 
GCM 0  8  12 0  4.7699E-06
GA  8  0  80 90 8.4823E-02
R2  8  0  1.0000E+05
C2  1  8  3.0000E-11
GB  1  0  8  0  3.1289E+00
RO2 1  0  1.5000E+00
* OUTPUT 
RSO 1  6  1.0000E+00
ECL 18 0  1  6  1.2252E+01
GCL 0  8  20 0  1.0000E+00
RCL 20 0  1.0000E+01
D1  18 19 DM1  
VOD1 19 20 0.0000E+00
D2  20 21 DM1  
VOD2 21 18 1.8378E-01
* 
D3A 131 70 DM3 
D3B 13 131 DM3 
GPL 0  8  70 7  1.0000E+00
VC  13 6  2.6003E+00
RPLA 7  70 1.0000E+01
RPLB 7  131 1.0000E+03
D4A 60 141 DM3 
D4B 141 14  DM3 
GNL 0  8  60 4  1.0000E+00
VE  6  14 2.1003E+00
RNLA 60 4  1.0000E+01
RNLB 141 4  1.0000E+03
* 
IP  7  4  1.5499E-02
DSUB 4  7  DM2  
* MODELS 
.MODEL QM1 NPN (IS=8.0000E-16 BF=1.3750E+04)
.MODEL QM2 NPN (IS=8.0621E-16 BF=2.0625E+04)
.MODEL DM1  D   (IS=1.0000E-20)
.MODEL DM2  D   (IS=8.0000E-16 BV=2.1600E+01)
.MODEL DM3  D   (IS=1.0000E-16)
.ENDS LT1192
* 
* - - - - - * FINI LT1192 * - - - - - * [OAMM VN02 10/29/90]
********
*SRC=LT1193;LT1193;Opamps;LT-"LTxxx";
*SYM=LTOPAMP 
*
* Linear Technology LT1193 op amp model  
* Written: 11-25-1992 09:20:47 Type: Bipolar NPN input, internal comp.
* Typical specs: 
* Vos=2.0E-03, Ib=0.5E-6, Ios=0.2E-6, GBP=5.5E+07Hz, Phase mar.= 65 deg, 
* SR(-)=5.0E+02V/us, SR(+)=5.0E+02V/us, Av= 85.0dB, CMRR=70.0dB, 
* Vsat(+)=1.000V, Vsat(-)=0.500V, Isc=+85/-%100mA, Rout=   3ohms, Iq=%29.60mA.
* 
* Connections: + - V+V-O 
.SUBCKT LT1193 3 2 7 4 6 REF FB
*LT1193 FRONTEND*
RL1A 7 1A 500
RL2A 7 5A 500
RE1A 9A 10A 1K
RE2A 6A 8A 1K
I1 9A 4 DC .0013
I2 10A 4 DC .0013
I3 6A 4 DC .0014
I4 8A 4 DC .0014
Q1A 1A 3 9A MOD1
Q2A 5A 2 10A MOD2
Q3A 1A REF 6A MOD1
Q4A 5A FB 8A MOD2
RCM1 9A 0 2.5MEG
RCM2 6A 0 2.5MEG
CCM1 9A 0 .2PF
CCM2 6A 0 .2PF
CIN1 2 3 2PF
CIN2 REF FB 2PF
.MODEL MOD1 NPN BF=2000 IS=1.00E-16
.MODEL MOD2 NPN BF 2500 IS=1.04E-16
* 
* INPUT
RC1 7  80 9.6458E+01
RC2 7  90 9.6458E+01
Q1  80 1A 10 QM1 
Q2  90 5A  11 QM2 
CIN 1A 5A  1.0000E-13
C1  80 90 1.5000E-11
RE1 10 12 9.3806E+01
RE2 11 12 9.3806E+01
IEE 12 4  1.9500E-02
RE  12 0  1.0256E+04
* INTERMEDIATE 
GCM 0  8  12 0  2.0685E-08
GA  8  0  80 90 1.0367E-02
R2  8  0  1.0000E+05
C2  1  8  2.0000E-11
GB  1  0  8  0  1.1435E+01
RO2 1  0  1.5000E+00
* OUTPUT 
RSO 1  6  1.0000E+00
ECL 18 0  1  6  1.2338E+01
GCL 0  8  20 0  1.0000E+00
RCL 20 0  1.0000E+01
D1  18 19 DM1  
VOD1 19 20 0.0000E+00
D2  20 21 DM1  
VOD2 21 18 1.8507E-01
* 
D3A 131 70 DM3 
D3B 13 131 DM3 
GPL 0  8  70 7  1.0000E+00
VC  13 6  2.6107E+00
RPLA 7  70 1.0000E+01
RPLB 7  131 1.0000E+03
D4A 60 141 DM3 
D4B 141 14  DM3 
GNL 0  8  60 4  1.0000E+00
VE  6  14 2.1107E+00
RNLA 60 4  1.0000E+01
RNLB 141 4  1.0000E+03
* 
IP  7  4  1.0100E-02
DSUB 4  7  DM2  
* MODELS 
.MODEL QM1 NPN (IS=8.0000E-16 BF=6.5000E+09)
.MODEL QM2 NPN (IS=8.0003E-16 BF=1.9500E+10)
.MODEL DM1  D   (IS=1.0000E-20)
.MODEL DM2  D   (IS=8.0000E-16 BV=2.1600E+01)
.MODEL DM3  D   (IS=1.0000E-16)
.ENDS LT1193
* 
* - - - - - * FINI LT1193 * - - - - - * [OAMM VN02 10/29/90]
********
*SRC=LT1194;LT1194;Opamps;LT-"LTxxx";
*SYM=LTOPAMP 
*
* Linear Technology LT1194 op amp model  
* Written: 11-30-1992 15:39:54 Type: Bipolar NPN input, internal comp.
* Typical specs: 
* Vos=1.0E-03, Ib=0.5E-6, Ios=0.2E-6, GBP=3.5E+08Hz, Phase mar.= 45 deg, 
* SR(-)=5.0E+02V/us, SR(+)=5.0E+02V/us, Av= 89.0dB, CMRR=80.0dB, 
* Vsat(+)=1.000V, Vsat(-)=0.500V, Isc=+85/-%100mA, Rout=   3ohms, Iq=%29.50mA.
* 
* Connections: + - V+V-O 
.SUBCKT LT1194 3 2 7 4 6 REF VOS1 VOS2
*LT1194 FRONT END*
VBIAS 2A 4 DC 0.975
I1 6A 4 DC .0014
I2 8A 4 DC .0014
RL1A 7 1A 500
RL2A 7 5A 500
RE1A 9A 10A 230
RE2A 6A 8A 230
RFB FB 6 4500
RG FB REF 500
RX1 VOS1 4 150
RX2 VOS2 4 150
RCM1 9A 0 7.5MEG
RCM2 6A 0 7.5MEG
CCM1 9A 0 1PF
CCM2 6A 0 1PF
CIN1 2 3 2PF
Q1A 1A 3 9A MOD1
Q2A 5A 2 10A MOD2
Q3A 1A REF 6A MOD1
Q4A 5A FB 8A MOD2
Q5A 9A 2A VOS1 MOD1
Q6A 10A 2A VOS2 MOD1
.MODEL MOD1 NPN BF=2000 IS=1.00E-16
.MODEL MOD2 NPN BF=2500 IS=1.04E-16
*
* INPUT
RC1 7  80 5.8946E+01
RC2 7  90 5.8946E+01
Q1  80 1A  10 QM1 
Q2  90 5A  11 QM2 
CIN 1A 5A  1.0000E-13
C1  80 90 1.5000E-11
RE1 10 12 5.6484E+01
RE2 11 12 5.6484E+01
IEE 12 4  2.1000E-02
RE  12 0  9.5238E+03
* INTERMEDIATE 
GCM 0  8  12 0  3.3849E-08
GA  8  0  80 90 1.6965E-02
R2  8  0  1.0000E+05
C2  1  8  3.0000E-11
GB  1  0  8  0  3.1215E+00
RO2 1  0  1.5000E+00
* OUTPUT 
RSO 1  6  1.0000E+00
ECL 18 0  1  6  1.2378E+01
GCL 0  8  20 0  1.0000E+00
RCL 20 0  1.0000E+01
D1  18 19 DM1  
VOD1 19 20 0.0000E+00
D2  20 21 DM1  
VOD2 21 18 1.8567E-01
* 
D3A 131 70 DM3 
D3B 13 131 DM3 
GPL 0  8  70 7  1.0000E+00
VC  13 6  2.6155E+00
RPLA 7  70 1.0000E+01
RPLB 7  131 1.0000E+03
D4A 60 141 DM3 
D4B 141 14  DM3 
GNL 0  8  60 4  1.0000E+00
VE  6  14 2.1155E+00
RNLA 60 4  1.0000E+01
RNLB 141 4  1.0000E+03
* 
IP  7  4  8.5000E-03
DSUB 4  7  DM2  
* MODELS 
.MODEL QM1 NPN (IS=8.0000E-16 BF=7.0000E+09)
.MODEL QM2 NPN (IS=8.0003E-16 BF=2.1000E+10)
.MODEL DM1  D   (IS=1.0000E-20)
.MODEL DM2  D   (IS=8.0000E-16 BV=2.1600E+01)
.MODEL DM3  D   (IS=1.0000E-16)
.ENDS LT1194
* 
* - - - - - * fini LT1194 * - - - - - * [oamm vn02 10/29/90]
********
*SRC=LT1195;LT1195;Opamps;LT-"LTxxx";
*SYM=LTOPAMP 
*
* Linear Technology LT1195 op amp model  
* Written: 12-04-1992 13:36:14 Type: Bipolar NPN input, internal comp.
* Typical specs: 
* Vos=3.0E-03, Ib=5.0E-07, Ios=2.0E-07, GBP=5.0E+07Hz, Phase mar.= 60 deg, 
* SR(-)=1.65E+02V/us, SR(+)=1.65E+02V/us, Av= 77.5dB, CMRR= 85.0dB, 
* Vsat(+)=1.000V, Vsat(-)=0.500V, Isc=+35/-35mA, Rout=  10ohms, Iq=%12.00mA.
* 
* Connections: + - V+V-O 
.SUBCKT LT1195 3 2 7 4 6 
*LT1195 FRONT END*
RL1A 7 1A 500
RL2A 7 5A 500
CRL 1A 5A 6PF
RE1A 9A 10A 1200
RCM 9A 0 10MEG
I1 9A 4 DC 260UA
I2 10A 4 DC 260UA
Q1A 1A 3 9A MOD1
Q2A 5A 2 10A MOD2
.MODEL MOD1 NPN BF=500 IS=1.00E-16
.MODEL MOD2 NPN BF=550 IS=1.04E-16
**
* INPUT
RC1 7  80 7.5788E+01
RC2 7  90 7.5788E+01
Q1  80 1A  10 QM1 
Q2  90 5A  11 QM2 
CIN 2  3  2.000E-12
C1  80 90 20.981E-12
RE1 10 12 6.8885E+01
RE2 11 12 6.8885E+01
IEE 12 4  7.5010E-03
*RE  12 0  2.6663E+04
* INTERMEDIATE 
GCM 0  8  12 0  7.4199E-07
GA  8  0  80 90 1.3195E-02
R2  8  0  1.0000E+05
C2  1  800  2.0000E-11
RXC2 800 8 800
GB  1  0  8  0  6.3148E-01
RO2 1  0  9.0000E+00
* OUTPUT 
RSO 1  6  1.0000E+00
ECL 18 0  1  6  2.8915E+01
GCL 0  8  20 0  1.0000E+00
RCL 20 0  1.0000E+01
D1  18 19 DM1  
VOD1 19 20 0.0000E+00
D2  20 21 DM1  
VOD2 21 18 0.0000E+00
* 
D3A 131 70 DM3 
D3B 13 131 DM3 
GPL 0  8  70 7  1.0000E+00
VC  13 6  2.5586E+00
RPLA 7  70 1.0000E+01
RPLB 7  131 1.0000E+03
D4A 60 141 DM3 
D4B 141 14  DM3 
GNL 0  8  60 4  1.0000E+00
VE  6  14 2.0586E+00
RNLA 60 4  1.0000E+01
RNLB 141 4  1.0000E+03
* 
IP  7  4  4.4990E-03
DSUB 4  7  DM2  
* MODELS 
.MODEL QM1 NPN (IS=8.0000E-16 BF=6.2500E+03)
.MODEL QM2 NPN (IS=8.9844E-16 BF=9.3750E+03)
.MODEL DM1  D   (IS=1.0000E-20)
.MODEL DM2  D   (IS=8.0000E-16 BV=2.1600E+01)
.MODEL DM3  D   (IS=1.0000E-16)
.ENDS LT1195
* 
* - - - - - * fini LT1195 * - - - - - * [oamm vn02 10/29/90]
********
*SRC=LT1200;LT1200;Opamps;LT-"LTxxx";
*SYM=LTOPAMP 
*
* Linear Technology LT1200 op amp model  
* Written: 01-14-1993 11:05:54 Type: Bipolar NPN input, internal comp.
* Modified by G.F. to add Cload compensation network and freq. shaping
* Typical specs: 
* Vos=5.0E-04, Ib=5.0E-07, Ios=5.0E-08, GBP=1.1E+07Hz, Phase mar.= 45 deg, 
* SR(-)=5.0E+01V/us, SR(+)=5.0E+01V/us, Av= 76.0dB, CMRR=100.0dB, 
* Vsat(+)=1.000V, Vsat(-)=1.300V, Isc=+20/-20mA, Rout=  95ohms, Iq=1.00mA.
* 
* Connections: + - V+V-O 
.SUBCKT LT1200 3 2 7 4 6 
* INPUT
RC1 7  80 4.5214E+03
RC2 7  90 4.5214E+03
Q1  80 2  10 QM1 
Q2  90 3  11 QM2 
CIN 2  3  2.0000E-12
C1  80 90 2.35E-12
*INPUT POLE AT 75MHZ
RE1 10 12 4.1723E+03
RE2 11 12 4.1723E+03
IEE 12 4  1.6100E-04
RE  12 0  1.2422E+06
* INTERMEDIATE 
*MODS: GA DEPENDENCE INVERTED (POLARITY SWAPPED)
*      R2 INCREASED TO 31.6MOHM (ALL GAIN IN ONE STAGE)
*      C2 TIED TO GROUND (WAS NODE 1), REDUCED TO 2.76PF FROM 3.2PF
*      GB POLARITY REVERSED GB=1/RO2 FOR GAIN OF 1
*      RF, CF ADDED FOR CLOAD NETWORK (REDUCES VALUE OF C2)
*      REVERSE POLARITY OF GN1,GP1,GC1,GCM FOR LIMITING BECAUSE OF GA REVERSAL
*      ADD MULTIPLE POLES AND A ZERO BETWEEN GA STAGE AND GB STAGE     
GCM 8  0  12 0  2.2117E-09
GA  8  0  90 80 2.2117E-04
R2  8  0  31.6E+06
C2  8  0  2.67E-12
*POLE AT 75MHZ
GX1 0  28  8  0  1E-06
RX1 28 0   1E+06
CX1 28 0   2.12E-15
*POLE AT 150MHZ
GX2 0  38  28 0  1E-06
RX2 38 0   1E+06
CX2 38 0   1.06E-15
*POLE AT 150MHZ
GX3 0  48  38 0  1E-06
RX3 48 0   1E+06
CX3 48 0   1.06E-15
*ZERO AT 13MHZ
GX4 0  58  48 0  1E-06
RX4 58 59  1E+06
LX4 59 0   12.2E-03
*POLE AT 200MHZ
GX5 0  68  58 0  1E-06
RX5 68 0   1E+06
CX5 68 0   .796E-15
*POLE AT 750MHZ
GX6 0  78  68 0  1E-06
RX6 78 0   1E+06
CX6 78 0   .212E-15
*
GB  0  1  78 0 10.5E-03
RO2 1  0  9.5000E+01
RF  8  99 12E+03
CF  99 6  2.5E-12
* OUTPUT 
RSO 1  6  1.0000E+00
ECL 18 0  1  6  4.5269E+01
GCL 8  0  20 0  1.0000E+00
RCL 20 0  1.0000E+01
D1  18 19 DM1  
VOD1 19 20 0.0000E+00
D2  20 21 DM1  
VOD2 21 18 0.0000E+00
* 
D3A 131 70 DM3 
D3B 13 131 DM3 
GPL 8  0  70 7  1.0000E+00
VC  13 6  2.4313E+00
RPLA 7  70 1.0000E+01
RPLB 7  131 1.0000E+03
D4A 60 141 DM3 
D4B 141 14  DM3 
GNL 8  0  60 4  1.0000E+00
VE  6  14 2.7313E+00
RNLA 60 4  1.0000E+01
RNLB 141 4  1.0000E+03
* 
IP  7  4  8.3900E-04
DSUB 4  7  DM2  
* MODELS 
.MODEL QM1 NPN (IS=8.0000E-16 BF=1.5238E+02)
.MODEL QM2 NPN (IS=8.1562E-16 BF=1.6842E+02)
.MODEL DM1  D   (IS=1.0000E-20)
.MODEL DM2  D   (IS=8.0000E-16 BV=4.3200E+01)
.MODEL DM3  D   (IS=1.0000E-16)
.ENDS LT1200
* 
* - - - - - * fini LT1200 * - - - - - * [oamm vn02 10/29/90]
********
*SRC=LT1201;LT1201;Opamps;LT-"LTxxx";
*SYM=LTOPAMP 
*
* Linear Technology LT1201 op amp model  
* Written: 01-14-1993 11:05:54 Type: Bipolar NPN input, internal comp.
* Modified by G.F. to add Cload compensation network and freq. shaping
* Typical specs: 
* Vos=5.0E-04, Ib=5.0E-07, Ios=5.0E-08, GBP=1.1E+07Hz, Phase mar.= 45 deg, 
* SR(-)=5.0E+01V/us, SR(+)=5.0E+01V/us, Av= 76.0dB, CMRR=100.0dB, 
* Vsat(+)=1.000V, Vsat(-)=1.300V, Isc=+20/-20mA, Rout=  95ohms, Iq=1.00mA.
* 
* Connections: + - V+V-O 
.SUBCKT LT1201 3 2 7 4 6 
* INPUT
RC1 7  80 4.5214E+03
RC2 7  90 4.5214E+03
Q1  80 2  10 QM1 
Q2  90 3  11 QM2 
CIN 2  3  2.0000E-12
C1  80 90 2.35E-12
*INPUT POLE AT 75MHZ
RE1 10 12 4.1723E+03
RE2 11 12 4.1723E+03
IEE 12 4  1.6100E-04
RE  12 0  1.2422E+06
* INTERMEDIATE 
*MODS: GA DEPENDENCE INVERTED (POLARITY SWAPPED)
*      R2 INCREASED TO 31.6MOHM (ALL GAIN IN ONE STAGE)
*      C2 TIED TO GROUND (WAS NODE 1), REDUCED TO 2.76PF FROM 3.2PF
*      GB POLARITY REVERSED GB=1/RO2 FOR GAIN OF 1
*      RF, CF ADDED FOR CLOAD NETWORK (REDUCES VALUE OF C2)
*      REVERSE POLARITY OF GN1,GP1,GC1,GCM FOR LIMITING BECAUSE OF GA REVERSAL
*      ADD MULTIPLE POLES AND A ZERO BETWEEN GA STAGE AND GB STAGE     
GCM 8  0  12 0  2.2117E-09
GA  8  0  90 80 2.2117E-04
R2  8  0  31.6E+06
C2  8  0  2.67E-12
*POLE AT 75MHZ
GX1 0  28  8  0  1E-06
RX1 28 0   1E+06
CX1 28 0   2.12E-15
*POLE AT 150MHZ
GX2 0  38  28 0  1E-06
RX2 38 0   1E+06
CX2 38 0   1.06E-15
*POLE AT 150MHZ
GX3 0  48  38 0  1E-06
RX3 48 0   1E+06
CX3 48 0   1.06E-15
*ZERO AT 13MHZ
GX4 0  58  48 0  1E-06
RX4 58 59  1E+06
LX4 59 0   12.2E-03
*POLE AT 200MHZ
GX5 0  68  58 0  1E-06
RX5 68 0   1E+06
CX5 68 0   .796E-15
*POLE AT 750MHZ
GX6 0  78  68 0  1E-06
RX6 78 0   1E+06
CX6 78 0   .212E-15
*
GB  0  1  78 0 10.5E-03
RO2 1  0  9.5000E+01
RF  8  99 12E+03
CF  99 6  2.5E-12
* OUTPUT 
RSO 1  6  1.0000E+00
ECL 18 0  1  6  4.5269E+01
GCL 8  0  20 0  1.0000E+00
RCL 20 0  1.0000E+01
D1  18 19 DM1  
VOD1 19 20 0.0000E+00
D2  20 21 DM1  
VOD2 21 18 0.0000E+00
* 
D3A 131 70 DM3 
D3B 13 131 DM3 
GPL 8  0  70 7  1.0000E+00
VC  13 6  2.4313E+00
RPLA 7  70 1.0000E+01
RPLB 7  131 1.0000E+03
D4A 60 141 DM3 
D4B 141 14  DM3 
GNL 8  0  60 4  1.0000E+00
VE  6  14 2.7313E+00
RNLA 60 4  1.0000E+01
RNLB 141 4  1.0000E+03
* 
IP  7  4  8.3900E-04
DSUB 4  7  DM2  
* MODELS 
.MODEL QM1 NPN (IS=8.0000E-16 BF=1.5238E+02)
.MODEL QM2 NPN (IS=8.1562E-16 BF=1.6842E+02)
.MODEL DM1  D   (IS=1.0000E-20)
.MODEL DM2  D   (IS=8.0000E-16 BV=4.3200E+01)
.MODEL DM3  D   (IS=1.0000E-16)
.ENDS LT1201
* 
* - - - - - * FINI LT1201 * - - - - - * [OAMM VN02 10/29/90]
********
*SRC=LT1202;LT1202;Opamps;LT-"LTxxx";
*SYM=LTOPAMP 
*
* Linear Technology LT1202 op amp model  
* Written: 01-14-1993 11:05:54 Type: Bipolar NPN input, internal comp.
* Modified by G.F. to add Cload compensation network and freq. shaping
* Typical specs: 
* Vos=5.0E-04, Ib=5.0E-07, Ios=5.0E-08, GBP=1.1E+07Hz, Phase mar.= 45 deg, 
* SR(-)=5.0E+01V/us, SR(+)=5.0E+01V/us, Av= 76.0dB, CMRR=100.0dB, 
* Vsat(+)=1.000V, Vsat(-)=1.300V, Isc=+20/-20mA, Rout=  95ohms, Iq=1.00mA.
* 
* Connections: + - V+V-O 
.SUBCKT LT1202 3 2 7 4 6 
* INPUT
RC1 7  80 4.5214E+03
RC2 7  90 4.5214E+03
Q1  80 2  10 QM1 
Q2  90 3  11 QM2 
CIN 2  3  2.0000E-12
C1  80 90 2.35E-12
*INPUT POLE AT 75MHZ
RE1 10 12 4.1723E+03
RE2 11 12 4.1723E+03
IEE 12 4  1.6100E-04
RE  12 0  1.2422E+06
* INTERMEDIATE 
*MODS: GA DEPENDENCE INVERTED (POLARITY SWAPPED)
*      R2 INCREASED TO 31.6MOHM (ALL GAIN IN ONE STAGE)
*      C2 TIED TO GROUND (WAS NODE 1), REDUCED TO 2.76PF FROM 3.2PF
*      GB POLARITY REVERSED GB=1/RO2 FOR GAIN OF 1
*      RF, CF ADDED FOR CLOAD NETWORK (REDUCES VALUE OF C2)
*      REVERSE POLARITY OF GN1,GP1,GC1,GCM FOR LIMITING BECAUSE OF GA REVERSAL
*      ADD MULTIPLE POLES AND A ZERO BETWEEN GA STAGE AND GB STAGE     
GCM 8  0  12 0  2.2117E-09
GA  8  0  90 80 2.2117E-04
R2  8  0  31.6E+06
C2  8  0  2.67E-12
*POLE AT 75MHZ
GX1 0  28  8  0  1E-06
RX1 28 0   1E+06
CX1 28 0   2.12E-15
*POLE AT 150MHZ
GX2 0  38  28 0  1E-06
RX2 38 0   1E+06
CX2 38 0   1.06E-15
*POLE AT 150MHZ
GX3 0  48  38 0  1E-06
RX3 48 0   1E+06
CX3 48 0   1.06E-15
*ZERO AT 13MHZ
GX4 0  58  48 0  1E-06
RX4 58 59  1E+06
LX4 59 0   12.2E-03
*POLE AT 200MHZ
GX5 0  68  58 0  1E-06
RX5 68 0   1E+06
CX5 68 0   .796E-15
*POLE AT 750MHZ
GX6 0  78  68 0  1E-06
RX6 78 0   1E+06
CX6 78 0   .212E-15
*
GB  0  1  78 0 10.5E-03
RO2 1  0  9.5000E+01
RF  8  99 12E+03
CF  99 6  2.5E-12
* OUTPUT 
RSO 1  6  1.0000E+00
ECL 18 0  1  6  4.5269E+01
GCL 8  0  20 0  1.0000E+00
RCL 20 0  1.0000E+01
D1  18 19 DM1  
VOD1 19 20 0.0000E+00
D2  20 21 DM1  
VOD2 21 18 0.0000E+00
* 
D3A 131 70 DM3 
D3B 13 131 DM3 
GPL 8  0  70 7  1.0000E+00
VC  13 6  2.4313E+00
RPLA 7  70 1.0000E+01
RPLB 7  131 1.0000E+03
D4A 60 141 DM3 
D4B 141 14  DM3 
GNL 8  0  60 4  1.0000E+00
VE  6  14 2.7313E+00
RNLA 60 4  1.0000E+01
RNLB 141 4  1.0000E+03
* 
IP  7  4  8.3900E-04
DSUB 4  7  DM2  
* MODELS 
.MODEL QM1 NPN (IS=8.0000E-16 BF=1.5238E+02)
.MODEL QM2 NPN (IS=8.1562E-16 BF=1.6842E+02)
.MODEL DM1  D   (IS=1.0000E-20)
.MODEL DM2  D   (IS=8.0000E-16 BV=4.3200E+01)
.MODEL DM3  D   (IS=1.0000E-16)
.ENDS LT1202
* 
* - - - - - * FINI LT1202 * - - - - - * [OAMM VN02 10/29/90]
********
*SRC=LT1208;LT1208;Opamps;LT-"LTxxx";
*SYM=LTOPAMP 
* 
* Linear Technology LT1208 op amp model  
* Written: 12-09-1992 09:06:32 Type: Bipolar NPN input, internal comp.
* Modified by G.F. to add Cload compensation network and freq. shaping
* Typical specs: 
* Vos=5.0E-04, Ib=4.0E-06, Ios=1.0E-07, GBP=4.5E+07Hz, Phase mar.= 50 deg, 
* SR(-)=4.0E+02V/us, SR(+)=4.0E+02V/us, Av= 77.0dB, CMRR=100.0dB, 
* Vsat(+)=1.300V, Vsat(-)=1.700V, Isc=+40/-40mA, Rout=50ohms, Iq=7.00mA.
* 
* Connections: + - V+V-O 
.SUBCKT LT1208 3 2 7 4 6 
* INPUT
RC1 7  80 9.9909E+02
RC2 7  90 9.9909E+02
Q1  80 2  10 QM1 
Q2  90 3  11 QM2 
CIN 2  3  2.0000E-12
C1  80 90 0.265E-12
*INPUT POLE AT 300MHZ
RE1 10 12 9.5717E+02
RE2 11 12 9.5717E+02
IEE 12 4  1.4240E-03
RE  12 0  1.4045E+05
* INTERMEDIATE
*MODS: GA DEPENDENCE INVERTED (POLARITY SWAPPED)
*      R2 INCREASED TO 7MOHM (ALL GAIN IN ONE STAGE)
*      C2 TIED TO GROUND (WAS NODE 1), REDUCED TO 3.11PF FROM 3.54PF 
*      GB POLARITY REVERSED, GB=1/R02 FOR GAIN OF 1 
*      RF, CF ADDED FOR CLOAD NETWORK (REDUCES VALUE OF C2)
*      REVERSE POLARITY OF GNL,GPL,GCL,GCM FOR LIMITING BECAUSE OF GA REVERSAL
*      ADD MULTIPLE POLES AND A ZERO BETWEEN GA STAGE AND GB STAGE
GCM 8  0  12 0  1.0009E-08
GA  8  0  90 80 1.0009E-03
R2  8  0  7.35E+06
C2  8  0  3.11E-12
*POLE AT 300MHZ
GX1 0  28 8  0  1E-06
RX1 28 0  1E+06
CX1 28 0  0.53E-15
*POLE AT 300MHZ
GX2 0  38 28 0  1E-06
RX2 38 0  1E+06
CX2 38 0  0.53E-15
*POLE AT 300MHZ
GX3 0  48 38 0  1E-06
RX3 48 0  1E+06
CX3 48 0  0.53E-15  
*ZERO AT 60MHZ
GX4 0  58 48 0  1E-06
RX4 58 59 1E+06
LX4 59 0  2.65E-03
*POLE AT 120MHZ
GX5 0  68 58 0  1E-06
RX5 68 0 1E+06
CX5 68 0 1.33E-15
*POLE AT 300MHZ
GX6 0  78 68 0  1E-06
RX6 78 0  1E+06
CX6 78 0  0.53E-15
*
GB  0  1  78 0  20.4E-03
RO2 1  0  49
RF  8  99 2400
CF  99 6  5E-12
* OUTPUT 
RSO 1  6  1.0000E+00
ECL 18 0  1  6  2.3987E+01
GCL 8  0  20 0  1.0000E+00
RCL 20 0  1.0000E+01
D1  18 19 DM1  
VOD1 19 20 5.9605E-08
D2  20 21 DM1  
VOD2 21 18 5.9605E-08
* 
D3A 131 70 DM3 
D3B 13 131 DM3 
GPL 8  0  70 7  1.0000E+00
VC  13 6  2.7909E+00
RPLA 7  70 1.0000E+01
RPLB 7  131 1.0000E+03
D4A 60 141 DM3 
D4B 141 14  DM3 
GNL 8  0  60 4  1.0000E+00
VE  6  14 3.1909E+00
RNLA 60 4  1.0000E+01
RNLB 141 4  1.0000E+03
* 
IP  7  4  5.5760E-03
DSUB 4  7  DM2  
* MODELS 
.MODEL QM1 NPN (IS=8.0000E-16 BF=1.7481E+02)
.MODEL QM2 NPN (IS=8.1240E-16 BF=1.7924E+02)
.MODEL DM1  D   (IS=1.0000E-20)
.MODEL DM2  D   (IS=8.0000E-16 BV=4.3200E+01)
.MODEL DM3  D   (IS=1.0000E-16)
.ENDS LT1208
* 
* - - - - - * FINI LT1208 * - - - - - * [OAMM VN02 10/29/90]
********
*SRC=LT1209;LT1209;Opamps;LT-"LTxxx";
*SYM=LTOPAMP 
*
* Linear Technology LT1209 op amp model  
* Written: 12-09-1992 09:06:32 Type: Bipolar NPN input, internal comp.
* Modified by G.F. to add Cload compensation network and freq. shaping
* Typical specs: 
* Vos=5.0E-04, Ib=4.0E-06, Ios=1.0E-07, GBP=4.5E+07Hz, Phase mar.= 50 deg, 
* SR(-)=4.0E+02V/us, SR(+)=4.0E+02V/us, Av= 77.0dB, CMRR=100.0dB, 
* Vsat(+)=1.300V, Vsat(-)=1.700V, Isc=+40/-40mA, Rout=50ohms, Iq=7.00mA.
* 
* Connections: + - V+V-O 
.SUBCKT LT1209 3 2 7 4 6 
* INPUT
RC1 7  80 9.9909E+02
RC2 7  90 9.9909E+02
Q1  80 2  10 QM1 
Q2  90 3  11 QM2 
CIN 2  3  2.0000E-12
C1  80 90 0.265E-12
*INPUT POLE AT 300MHZ
RE1 10 12 9.5717E+02
RE2 11 12 9.5717E+02
IEE 12 4  1.4240E-03
RE  12 0  1.4045E+05
* INTERMEDIATE
*MODS: GA DEPENDENCE INVERTED (POLARITY SWAPPED)
*      R2 INCREASED TO 7MOHM (ALL GAIN IN ONE STAGE)
*      C2 TIED TO GROUND (WAS NODE 1), REDUCED TO 3.11PF FROM 3.54PF 
*      GB POLARITY REVERSED, GB=1/R02 FOR GAIN OF 1 
*      RF, CF ADDED FOR CLOAD NETWORK (REDUCES VALUE OF C2)
*      REVERSE POLARITY OF GNL,GPL,GCL,GCM FOR LIMITING BECAUSE OF GA REVERSAL
*      ADD MULTIPLE POLES AND A ZERO BETWEEN GA STAGE AND GB STAGE
GCM 8  0  12 0  1.0009E-08
GA  8  0  90 80 1.0009E-03
R2  8  0  7.35E+06
C2  8  0  3.11E-12
*POLE AT 300MHZ
GX1 0  28 8  0  1E-06
RX1 28 0  1E+06
CX1 28 0  0.53E-15
*POLE AT 300MHZ
GX2 0  38 28 0  1E-06
RX2 38 0  1E+06
CX2 38 0  0.53E-15
*POLE AT 300MHZ
GX3 0  48 38 0  1E-06
RX3 48 0  1E+06
CX3 48 0  0.53E-15  
*ZERO AT 60MHZ
GX4 0  58 48 0  1E-06
RX4 58 59 1E+06
LX4 59 0  2.65E-03
*POLE AT 120MHZ
GX5 0  68 58 0  1E-06
RX5 68 0 1E+06
CX5 68 0 1.33E-15
*POLE AT 300MHZ
GX6 0  78 68 0  1E-06
RX6 78 0  1E+06
CX6 78 0  0.53E-15
*
GB  0  1  78 0  20.4E-03
RO2 1  0  49
RF  8  99 2400
CF  99 6  5E-12
* OUTPUT 