*************************************
*COPYRIGHT 1994, BY AMP INCORPORATED*
**ALL INTERNATIONAL RIGHTS RESERVED**
***************************************************
*                    *    AMP Connector Catalog No.
*  MODU SYSTEM 50    *            82178
*  VERTICAL          *
*  THRU HOLE         *
**********************
*  rev 3/1/94
*
* THE FOLLOWING RLC MODELS ARE APPROPRIATE
* FOR EDGE SPEEDS OF 500PS OR SLOWER
*
****************** RLC MODELS ********************
*
*************
*SRC=MS5VTM;MS5VTM;Connectors;Open Pin;Modu 50v, Median Row A/B
*SYM=ZPSLM
.SUBCKT MS5VTM 1  2   3
* AMP Modu System 50 vertical thru hole 82178
R1 1 4 0.009
L4 4 2 3.3NH
C4 4 3 1.0PF
.ENDS MS5VTM
*************
*
********** TRANSMISSION LINE MODELS **************
*
*************
*SRC=MS5VTML;MS5VTML;Connectors;Open Pin;Modu 50v, Median Row A/B
*SYM=ZPSLM
.SUBCKT MS5VTML 1  2   3
* AMP Modu System 50 vertical thru hole 82178
R1 1 4 0.009
T4 4 3 2 3 Z0=58 TD=56PS
.ENDS MS5VTML
**************
*
***************************************************
*                    *    AMP Connector Catalog No.
*  MODU SYSTEM 50    *           82178
*  VERTICAL          *
*  SURF. MNT         *
**********************
*  rev 3/1/94
*
* THE FOLLOWING RLC MODELS ARE APPROPRIATE
* FOR EDGE SPEEDS OF 500PS OR SLOWER
*
****************** RLC MODELS ********************
*
*************
*SRC=MS5VSM;MS5VSM;Connectors;Open Pin;Modu 50sm, Median Row A/B
*SYM=ZPSLM
.SUBCKT MS5VSM 1  2   3
* AMP Modu System 50 vertical surface mount 82178
R1 1 4 0.009
L4 4 2 3.9NH
C4 4 3 1.1PF
.ENDS MS5VSM
*************
*
********** TRANSMISSION LINE MODELS **************
*
**************
*SRC=MS5VSML;MS5VSML;Connectors;Open Pin;Modu 50sm, Median Row A/B
*SYM=ZPSLM
.SUBCKT MS5VSML 1  2   3
* AMP Modu System 50 vertical surface mount 82178
R1 1 4 0.009
T4 4 3 2 3 Z0=59 TD=66PS
.ENDS MS5VSML
**************
*
***************************************************
*  MODU              *    AMP Connector Catalog No.
*  METRISTAK         *           65790
*  VERTICAL          *
*  10 mm lgth        *
**********************
*  rev 3/1/94
*
* THE FOLLOWING RLC MODELS ARE APPROPRIATE
* FOR EDGE SPEEDS OF 500PS OR SLOWER
*
****************** RLC MODELS ********************
*
**************
*SRC=MMS10M;MMS10M;Connectors;Open Pin;Meristak, Median Row A/B
*SYM=ZPSLM
.SUBCKT MMS10M 1  2   3
* AMP Modu Metristak vertical 10mm length 65790
R1 1 4 0.039
L4 4 2 2.1NH
C4 4 3 1.8PF
.ENDS MMS10M
************
*
********** TRANSMISSION LINE MODELS **************
*
*********
*SRC=MMS10ML;MMS10ML;Connectors;Open Pin;Meristak, Median Row A/B
*SYM=ZPSLM
.SUBCKT MMS10ML 1  2   3
* AMP Modu Metristak vertical 10mm length 65790
R1 1 4 0.039
T4 4 3 2 3 Z0=35 TD=62PS
.ENDS MMS10ML
*************
*
***************************************************
*                    *    AMP Connector Catalog No.
*     MODU 50/50     *            82643
*     0.390 HIGH     *
*                    *
**********************
*  rev 3/1/94
*
* THE FOLLOWING RLC MODELS ARE APPROPRIATE
* FOR EDGE SPEEDS OF 500PS OR SLOWER
*
****************** RLC MODELS ********************
*
*********
*SRC=MODU39M;MODU39M;Connectors;Open Pin;Modu 50/50 Median 
*SYM=ZPSLM
.SUBCKT MODU39M 1  2   3
* AMP Modu 50/50 0.39 high 82643
R1 1 4 0.016
L4 4 2 3.7NH
C4 4 3 0.7PF
.ENDS MODU39M
*************
*
********** TRANSMISSION LINE MODELS **************
*
***********
*SRC=MODU39ML;MODU39ML;Connectors;Open Pin;Modu 50/50 Median 
*SYM=ZPSLM
.SUBCKT MODU39ML 1  2   3
* AMP Modu 50/50 0.39 high 82643
R1 1 4 0.016
T4 4 3 2 3 Z0=72 TD=50PS
.ENDS MODU39ML
**************
*
***************************************************
*                    *    AMP Connector Catalog No.
*     MODU 50/50     *            82643
*     0.320 HIGH     *
*                    *
**********************
*  rev 3/1/94
*
* THE FOLLOWING RLC MODELS ARE APPROPRIATE
* FOR EDGE SPEEDS OF 500PS OR SLOWER
*
****************** RLC MODELS ********************
*
**********
*SRC=MD5S32M;MD5S32M;Connectors;Open Pin;Modu 50/50 Median 
*SYM=ZPSLM
.SUBCKT MD5S32M 1  2   3
* AMP Modu 50/50 0.32 high 82643
R1 1 4 0.014
L4 4 2 3.0NH
C4 4 3 0.7PF
.ENDS MD5S32M
*************
*
********** TRANSMISSION LINE MODELS **************
*
***********
*SRC=MD5S32ML;MD5S32ML;Connectors;Open Pin;Modu 50/50 Median 
*SYM=ZPSLM
.SUBCKT MD5S32ML 1  2   3
* AMP Modu 50/50 0.32 high 82643
R1 1 4 0.014
T4 4 3 2 3 Z0=65 TD=45PS
.ENDS MD5S32ML
**************
*
***************************************************
*                    *    AMP Connector Catalog No.
*     MODU 50/50     *            82643
*     0.250 HIGH     *
*                    *
**********************
*  rev 3/1/94
*
* THE FOLLOWING RLC MODELS ARE APPROPRIATE
* FOR EDGE SPEEDS OF 500PS OR SLOWER
*
****************** RLC MODELS ********************
*
**********
*SRC=MD5S25M;MD5S25M;Connectors;Open Pin;Modu 50/50 Median 
*SYM=ZPSLM
.SUBCKT MD5S25M 1  2   3
* AMP Modu 50/50 0.25 high 82643
R1 1 4 0.012
L4 4 2 2.5NH
C4 4 3 0.6PF
.ENDS MD5S25M
*************
*
********** TRANSMISSION LINE MODELS **************
*
**********
*SRC=MD5S25ML;MD5S25ML;Connectors;Open Pin;Modu 50/50 Median 
*SYM=ZPSLM
.SUBCKT MD5S25ML 1  2   3
* AMP Modu 50/50 0.25 high 82643
R1 1 4 0.012
T4 4 3 2 3 Z0=65 TD=40PS
.ENDS MD5S25ML
**************
*
*****************************************************
*                       *   AMP Connector Catalog No.
*      HDI 4 ROW ST     *           82618
*                       *
*************************
*  rev 3/1/94
*
* THE FOLLOWING RLC MODELS ARE APPROPRIATE
* FOR EDGE SPEEDS OF 500PS OR SLOWER
*
****************** RLC MODELS ********************
*
*********
*SRC=HDI4SM;HDI4SM;Connectors;Open Pin;HDI 4 Row, Median Value
*SYM=ZPSLM
.SUBCKT HDI4SM 1  2   3
* AMP HDI 4 Row St 82618
R1 1 4 0.005
L4 4 5 3.7NH
C5 5 3 1.4PF
L5 5 6 3.7NH
R6 6 2 0.005
.ENDS HDI4SM
************
*
*****************
*SRC=HDI4SA;HDI4SA;Connectors;Open Pin;HDI 4 Row, Row A
*SYM=ZPSLM
.SUBCKT HDI4SA 1  2   3
* AMP HDI 4 Row St 82618
R1 1 4 0.005
L4 4 5 3.9NH
C5 5 3 1.3PF
L5 5 6 3.9NH
R6 6 2 0.005
.ENDS HDI4SA
************
*
*****************
*SRC=HDI4SB;HDI4SB;Connectors;Open Pin;HDI 4 Row, Row B
*SYM=ZPSLM
.SUBCKT HDI4SB 1  2   3
* AMP HDI 4 Row St 82618
R1 1 4 0.005
L4 4 5 3.5NH
C5 5 3 1.5PF
L5 5 6 3.5NH
R6 6 2 0.005
.ENDS HDI4SB
************
*
*****************
*SRC=HDI4SC;HDI4SC;Connectors;Open Pin;HDI 4 Row, Row C
*SYM=ZPSLM
.SUBCKT HDI4SC 1  2   3
* AMP HDI 4 Row St 82618
R1 1 4 0.005
L4 4 5 3.5NH
C5 5 3 1.5PF
L5 5 6 3.5NH
R6 6 2 0.005
.ENDS HDI4SC
************
*
*****************
*SRC=HDI4SD;HDI4SD;Connectors;Open Pin;HDI 4 Row, Row D
*SYM=ZPSLM
.SUBCKT HDI4SD 1  2   3
* AMP HDI 4 Row St 82618
R1 1 4 0.005
L4 4 5 3.9NH
C5 5 3 1.3PF
L5 5 6 3.9NH
R6 6 2 0.005
.ENDS HDI4SD
************
*
********** TRANSMISSION LINE MODELS **************
*
**********
*SRC=HDI4SML;HDI4SML;Connectors;Open Pin;HDI 4 Row, Median Value
*SYM=ZPSLM
.SUBCKT HDI4SML 1  2   3
* AMP HDI 4 Row St 82618
R1 1 4 0.005
T4 4 3 2 3 Z0=73 TD=105PS
.ENDS HDI4SML
*************
*
******************
*SRC=HDI4SAL;HDI4SAL;Connectors;Open Pin;HDI 4 Row, Row A
*SYM=ZPSLM
.SUBCKT HDI4SAL 1  2   3
* AMP HDI 4 Row St 82618
R1 1 4 0.005
T4 4 3 2 3 Z0=77 TD=100PS
.ENDS HDI4SAL
*************
*
******************
*SRC=HDI4SBL;HDI4SBL;Connectors;Open Pin;HDI 4 Row, Row B
*SYM=ZPSLM
.SUBCKT HDI4SBL 1  2   3
* AMP HDI 4 Row St 82618
R1 1 4 0.005
T4 4 3 2 3 Z0=68 TD=110PS
.ENDS HDI4SBL
*************
*
******************
*SRC=HDI4SCL;HDI4SCL;Connectors;Open Pin;HDI 4 Row, Row C
*SYM=ZPSLM
.SUBCKT HDI4SCL 1  2   3
* AMP HDI 4 Row St 82618
R1 1 4 0.005
T4 4 3 2 3 Z0=68 TD=110PS
.ENDS HDI4SCL
*************
*
******************
*SRC=HDI4SDL;HDI4SDL;Connectors;Open Pin;HDI 4 Row, Row D
*SYM=ZPSLM
.SUBCKT HDI4SDL 1  2   3
* AMP HDI 4 Row St 82618
R1 1 4 0.005
T4 4 3 2 3 Z0=77 TD=100PS
.ENDS HDI4SDL
*************
*
*****************************************************
*                       *   AMP Connector Catalog No.
*     HDI 3 ROW ST      *          82618
*                       *
*************************
*  rev 3/1/94
*
* THE FOLLOWING RLC MODELS ARE APPROPRIATE
* FOR EDGE SPEEDS OF 500PS OR SLOWER
*
****************** RLC MODELS ********************
*
*********
*SRC=HDI3SM;HDI3SM;Connectors;Open Pin;HDI 3 Row, Median Value
*SYM=ZPSLM
.SUBCKT HDI3SM 1  2   3
* AMP HDI 3 Row St 82618
R1 1 4 0.003
L4 4 5 3.8NH
C5 5 3 1.4PF
L5 5 6 3.8NH
R6 6 2 0.003
.ENDS HDI3SM
************
*
*****************
*SRC=HDI3SA;HDI3SA;Connectors;Open Pin;HDI 3 Row, Row A
*SYM=ZPSLM
.SUBCKT HDI3SA 1  2   3
* AMP HDI 3 Row St 82618
R1 1 4 0.003
L4 4 5 3.9NH
C5 5 3 1.3PF
L5 5 6 3.9NH
R6 6 2 0.003
.ENDS HDI3SA
************
*
*****************
*SRC=HDI3SB;HDI3SB;Connectors;Open Pin;HDI 3 Row, Row B
*SYM=ZPSLM
.SUBCKT HDI3SB 1  2   3
* AMP HDI 3 Row St 82618
R1 1 4 0.005
L4 4 5 3.5NH
C5 5 3 1.5PF
L5 5 6 3.5NH
R6 6 2 0.005
.ENDS HDI3SB
************
*
*****************
*SRC=HDI3SC;HDI3SC;Connectors;Open Pin;HDI 3 Row, Row C
*SYM=ZPSLM
.SUBCKT HDI3SC 1  2   3
* AMP HDI 3 Row St 82618
R1 1 4 0.003
L4 4 5 3.9NH
C5 5 3 1.3PF
L5 5 6 3.9NH
R6 6 2 0.003
.ENDS HDI3SC
************
*
********** TRANSMISSION LINE MODELS **************
*
**********
*SRC=HDI3SML;HDI3SML;Connectors;Open Pin;HDI 3 Row, Median Value
*SYM=ZPSLM
.SUBCKT HDI3SML 1  2   3
* AMP HDI 3 Row St 82618
R1 1 4 0.005
T4 4 3 2 3 Z0=74 TD=100PS
.ENDS HDI3SML
*************
*
******************
*SRC=HDI3SAL;HDI3SAL;Connectors;Open Pin;HDI 3 Row, Row A
*SYM=ZPSLM
.SUBCKT HDI3SAL 1  2   3
* AMP HDI 3 Row St 82618
R1 1 4 0.005
T4 4 3 2 3 Z0=77 TD=100PS
.ENDS HDI3SAL
*************
*
******************
*SRC=HDI3SBL;HDI3SBL;Connectors;Open Pin;HDI 3 Row, Row B
*SYM=ZPSLM
.SUBCKT HDI3SBL 1 2 3
* AMP HDI 3 Row St 82618
R1 1 4 0.005
T4 4 3 2 3 Z0=68 TD=110PS
.ENDS HDI3SBL
*************
*
******************
*SRC=HDI3SCL;HDI3SCL;Connectors;Open Pin;HDI 3 Row, Row C
*SYM=ZPSLM
.SUBCKT HDI3SCL 1  2   3
* AMP HDI 3 Row St 82618
R1 1 4 0.005
T4 4 3 2 3 Z0=77 TD=100PS
.ENDS HDI3SCL
*************
*
******************************************************
*                        *   AMP Connector Catalog No.
*  CHAMP SERIES I  (ST)  *           82244
*                        *
**************************
*  rev 3/1/94
*
* THE FOLLOWING RLC MODELS ARE APPROPRIATE
* FOR EDGE SPEEDS OF 500PS OR SLOWER
*
****************** RLC MODELS ********************
*
*********
*SRC=CHS1SM;CHS1SM;Connectors;Open Pin;Champ I, Median Value
*SYM=ZPSLM
.SUBCKT CHS1SM 1  2   3
* AMP Champ Series 1 82244
R1 1 4 0.004
L4 4 5 2.6NH
C5 5 3 1.7PF
L5 5 6 2.6NH
R6 6 2 0.004
.ENDS CHS1SM
************
*
*****************
*SRC=CHS1SA;CHS1SA;Connectors;Open Pin;Champ I, Row A
*SYM=ZPSLM
.SUBCKT CHS1SA 1  2   3
* AMP Champ Series 1 82244
R1 1 4 0.005
L4 4 5 3.2NH
C5 5 3 1.7PF
L5 5 6 3.2NH
R6 6 2 0.005
.ENDS CHS1SA
************
*
*****************
*SRC=CHS1SB;CHS1SB;Connectors;Open Pin;Champ I, Row B
*SYM=ZPSLM
.SUBCKT CHS1SB 1  2   3
* AMP Champ Series 1 82244
R1 1 4 0.004
L4 4 5 2.1NH
C5 5 3 1.7PF
L5 5 6 2.1NH
R6 6 2 0.004
.ENDS CHS1SB
************
*
*****************
*SRC=CHS1SC;CHS1SC;Connectors;Open Pin;Champ I, Row C
*SYM=ZPSLM
.SUBCKT CHS1SC 1  2   3
* AMP Champ Series 1 82244
R1 1 4 0.004
L4 4 5 2.1NH
C5 5 3 1.7PF
L5 5 6 2.1NH
R6 6 2 0.004
.ENDS CHS1SC
************
*
*****************
*SRC=CHS1SD;CHS1SD;Connectors;Open Pin;Champ I, Row D
*SYM=ZPSLM
.SUBCKT CHS1SD 1  2   3
* AMP Champ Series 1 82244
R1 1 4 0.005
L4 4 5 3.2NH
C5 5 3 1.7PF
L5 5 6 3.2NH
R6 6 2 0.005
.ENDS CHS1SD
************
*
********** TRANSMISSION LINE MODELS **************
*
**********
*SRC=CHS1SML;CHS1SML;Connectors;Open Pin;Champ I, Median Value
*SYM=ZPSLM
.SUBCKT CHS1SML 1  2   3
* AMP Champ Series 1 82244
R1 1 4 0.008
T4 4 3 2 3 Z0=56 TD=79PS
.ENDS CHS1SML
*************
*
******************
*SRC=CHS1SAL;CHS1SAL;Connectors;Open Pin;Champ I, Row A
*SYM=ZPSLM
.SUBCKT CHS1SAL 1  2   3
* AMP Champ Series 1 82244
R1 1 4 0.009
T4 4 3 2 3 Z0=61 TD=84PS
.ENDS CHS1SAL
*************
*
******************
*SRC=CHS1SBL;CHS1SBL;Connectors;Open Pin;Champ I, Row B
*SYM=ZPSLM
.SUBCKT CHS1SBL 1  2   3
* AMP Champ Series 1 82244
R1 1 4 0.007
T4 4 3 2 3 Z0=50 TD=73PS
.ENDS CHS1SBL
*************
*
******************
*SRC=CHS1SCL;CHS1SCL;Connectors;Open Pin;Champ I, Row C
*SYM=ZPSLM
.SUBCKT CHS1SCL 1  2   3
* AMP Champ Series 1 82244
R1 1 4 0.007
T4 4 3 2 3 Z0=50 TD=73PS
.ENDS CHS1SCL
*************
*
******************
*SRC=CHS1SDL;CHS1SDL;Connectors;Open Pin;Champ I, Row D
*SYM=ZPSLM
.SUBCKT CHS1SDL 1  2   3
* AMP Champ Series 1 82244
R1 1 4 0.009
T4 4 3 2 3 Z0=61 TD=84PS
.ENDS CHS1SDL
*************
*
******************************************************
*                        *   AMP Connector Catalog No.
*      CHAMP HD  (ST)    *          82244
*     .205 high          *
**************************
*  rev 3/1/94
*
* THE FOLLOWING RLC MODELS ARE APPROPRIATE
* FOR EDGE SPEEDS OF 500PS OR SLOWER
*
****************** RLC MODELS ********************
*
*********
*SRC=CHHDSM;CHHDSM;Connectors;Open Pin;Champ HD, Median Value
*SYM=ZPSLM
.SUBCKT CHHDSM 1  2   3
* AMP Champ HD .205 high 82244
R1 1 4 0.004
L4 4 5 2.2NH
C5 5 3 1.6PF
L5 5 6 2.2NH
R6 6 2 0.004
.ENDS CHHDSM
************
*
*****************
*SRC=CHHDSA;CHHDSA;Connectors;Open Pin;Champ HD, Row A
*SYM=ZPSLM
.SUBCKT CHHDSA 1  2   3
* AMP Champ HD .205 high 82244
R1 1 4 0.004
L4 4 5 2.5NH
C5 5 3 1.6PF
L5 5 6 2.5NH
R6 6 2 0.004
.ENDS CHHDSA
************
*
*****************
*SRC=CHHDSB;CHHDSB;Connectors;Open Pin;Champ HD, Row B
*SYM=ZPSLM
.SUBCKT CHHDSB 1  2   3
* AMP Champ HD .205 high 82244
R1 1 4 0.004
L4 4 5 1.9NH
C5 5 3 1.6PF
L5 5 6 1.9NH
R6 6 2 0.004
.ENDS CHHDSB
************
*
*****************
*SRC=CHHDSC;CHHDSC;Connectors;Open Pin;Champ HD, Row C
*SYM=ZPSLM
.SUBCKT CHHDSC 1  2   3
* AMP Champ HD .205 high 82244
R1 1 4 0.004
L4 4 5 1.9NH
C5 5 3 1.6PF
L5 5 6 1.9NH
R6 6 2 0.004
.ENDS CHHDSC
************
*
*****************
*SRC=CHHDSD;CHHDSD;Connectors;Open Pin;Champ HD, Row D
*SYM=ZPSLM
.SUBCKT CHHDSD 1  2   3
* AMP Champ HD .205 high 82244
R1 1 4 0.005
L4 4 5 2.5NH
C5 5 3 1.6PF
L5 5 6 2.5NH
R6 6 2 0.005
.ENDS CHHDSD
************
*
*****************
*SRC=CHHDSE;CHHDSE;Connectors;Open Pin;Champ HD, Row E
*SYM=ZPSLM
.SUBCKT CHHDSE 1  2   3
* AMP Champ HD .205 high 82244
R1 1 4 0.005
L4 4 5 2.5NH
C5 5 3 1.6PF
L5 5 6 2.5NH
R6 6 2 0.005
.ENDS CHHDSE
************
*
*****************
*SRC=CHHDSF;CHHDSF;Connectors;Open Pin;Champ HD, Row F
*SYM=ZPSLM
.SUBCKT CHHDSF 1  2   3
* AMP Champ HD .205 high 82244
R1 1 4 0.004
L4 4 5 1.9NH
C5 5 3 1.6PF
L5 5 6 1.9NH
R6 6 2 0.004
.ENDS CHHDSF
************
*
*****************
*SRC=CHHDSG;CHHDSG;Connectors;Open Pin;Champ HD, Row G
*SYM=ZPSLM
.SUBCKT CHHDSG 1  2   3
* AMP Champ HD .205 high 82244
R1 1 4 0.004
L4 4 5 1.9NH
C5 5 3 1.6PF
L5 5 6 1.9NH
R6 6 2 0.004
.ENDS CHHDSG
************
*
*****************
*SRC=CHHDSH;CHHDSH;Connectors;Open Pin;Champ HD, Row H
*SYM=ZPSLM
.SUBCKT CHHDSH 1  2   3
* AMP Champ HD .205 high 82244
R1 1 4 0.004
L4 4 5 2.5NH
C5 5 3 1.6PF
L5 5 6 2.5NH
R6 6 2 0.004
.ENDS CHHDSH
************
*
*
********** TRANSMISSION LINE MODELS **************
*
**********
*SRC=CHHDSML;CHHDSML;Connectors;Open Pin;Champ HD, Median Value
*SYM=ZPSLM
.SUBCKT CHHDSML 1  2   3
* AMP Champ HD .205 high 82244
R1 1 4 0.008
T4 4 3 2 3 Z0=52 TD=74PS
.ENDS CHHDSML
*************
*
******************
*SRC=CHHDSAL;CHHDSAL;Connectors;Open Pin;Champ HD, Row A
*SYM=ZPSLM
.SUBCKT CHHDSAL 1  2   3
* AMP Champ HD .205 high 82244
R1 1 4 0.008
T4 4 3 2 3 Z0=56 TD=76PS
.ENDS CHHDSAL
*************
*
******************
*SRC=CHHDSBL;CHHDSBL;Connectors;Open Pin;Champ HD, Row B
*SYM=ZPSLM
.SUBCKT CHHDSBL 1  2   3
* AMP Champ HD .205 high 82244
R1 1 4 0.007
T4 4 3 2 3 Z0=49 TD=71PS
.ENDS CHHDSBL
*************
*
******************
*SRC=CHHDSCL;CHHDSCL;Connectors;Open Pin;Champ HD, Row C
*SYM=ZPSLM
.SUBCKT CHHDSCL 1  2   3
* AMP Champ HD .205 high 82244
R1 1 4 0.007
T4 4 3 2 3 Z0=49 TD=71PS
.ENDS CHHDSCL
*************
*
******************
*SRC=CHHDSDL;CHHDSDL;Connectors;Open Pin;Champ HD, Row D
*SYM=ZPSLM
.SUBCKT CHHDSDL 1  2   3
* AMP Champ HD .205 high 82244
R1 1 4 0.008
T4 4 3 2 3 Z0=55 TD=76PS
.ENDS CHHDSDL
*************
*
******************
*SRC=CHHDSEL;CHHDSEL;Connectors;Open Pin;Champ HD, Row E
*SYM=ZPSLM
.SUBCKT CHHDSEL 1  2   3
* AMP Champ HD .205 high 82244
R1 1 4 0.008
T4 4 3 2 3 Z0=55 TD=76PS
.ENDS CHHDSEL
*************
*
******************
*SRC=CHHDSFL;CHHDSFL;Connectors;Open Pin;Champ HD, Row F
*SYM=ZPSLM
.SUBCKT CHHDSFL 1  2   3
* AMP Champ HD .205 high 82244
R1 1 4 0.007
T4 4 3 2 3 Z0=49 TD=71PS
.ENDS CHHDSFL
*************
*
******************
*SRC=CHHDSGL;CHHDSGL;Connectors;Open Pin;Champ HD, Row G
*SYM=ZPSLM
.SUBCKT CHHDSGL 1  2   3
* AMP Champ HD .205 high 82244
R1 1 4 0.007
T4 4 3 2 3 Z0=49 TD=71PS
.ENDS CHHDSGL
*************
*
******************
*SRC=CHHDSHL;CHHDSHL;Connectors;Open Pin;Champ HD, Row H
*SYM=ZPSLM
.SUBCKT CHHDSHL 1  2   3
* AMP Champ HD .205 high 82244
R1 1 4 0.008
T4 4 3 2 3 Z0=56 TD=76PS
.ENDS CHHDSHL
*************
*
******************************************************
*                        *   AMP Connector Catalog No.
*  CHAMP 0.050 FH (vert) *         82244
*    18 mm length        *
**************************
*  rev 3/1/94
*
* THE FOLLOWING RLC MODELS ARE APPROPRIATE
* FOR EDGE SPEEDS OF 500PS OR SLOWER
*
****************** RLC MODELS ********************
*
********
*SRC=C5FV18M;C5FV18M;Connectors;Open Pin;Champ FH, Median Value
*SYM=ZPSLM
.SUBCKT C5FV18M 1  2   3
* AMP Champ 0.050 FH (vert) 18mm length 82244
R1 1 4 0.005
L4 4 5 4.6NH
C5 5 3 0.9PF
L5 5 6 4.6NH
R6 6 2 0.005
.ENDS C5FV18M
*************
*
****************
*SRC=C5FV18A;C5FV18A;Connectors;Open Pin;Champ FH, Row A
*SYM=ZPSLM
.SUBCKT C5FV18A 1  2   3
* AMP Champ 0.050 FH (vert) 18mm length 82244
R1 1 4 0.005
L4 4 5 5.1NH
C5 5 3 0.9PF
L5 5 6 5.1NH
R6 6 2 0.005
.ENDS C5FV18A
*************
*
****************
*SRC=C5FV18B;C5FV18B;Connectors;Open Pin;Champ FH, Row B
*SYM=ZPSLM
.SUBCKT C5FV18B 1  2   3
* AMP Champ 0.050 FH (vert) 18mm length 82244
R1 1 4 0.005
L4 4 5 4.2NH
C5 5 3 0.9PF
L5 5 6 4.2NH
R6 6 2 0.004
.ENDS C5FV18B
*************
*
****************
*SRC=C5FV18C;C5FV18C;Connectors;Open Pin;Champ FH, Row C
*SYM=ZPSLM
.SUBCKT C5FV18C 1  2   3
* AMP Champ 0.050 FH (vert) 18mm length 82244
R1 1 4 0.005
L4 4 5 4.2NH
C5 5 3 0.9PF
L5 5 6 4.2NH
R6 6 2 0.004
.ENDS C5FV18C
*************
*
****************
*SRC=C5FV18D;C5FV18D;Connectors;Open Pin;Champ FH, Row D
*SYM=ZPSLM
.SUBCKT C5FV18D 1  2   3
* AMP Champ 0.050 FH (vert) 18mm length 82244
R1 1 4 0.005
L4 4 5 5.1NH
C5 5 3 0.9PF
L5 5 6 5.1NH
R6 6 2 0.005
.ENDS C5FV18D
*************
*
********** TRANSMISSION LINE MODELS **************
*
********
*SRC=C5FV18ML;C5FV18ML;Connectors;Open Pin;Champ FH, Median Value
*SYM=ZPSLM
.SUBCKT C5FV18ML 1  2   3
* AMP Champ 0.050 FH (vert) 18mm length 82244
R1 1 4 0.010
T4 4 3 2 3 Z0=104 TD=89PS
.ENDS C5FV18ML
**************
*
*****************
*SRC=C5FV18AL;C5FV18AL;Connectors;Open Pin;Champ FH, Row A
*SYM=ZPSLM
.SUBCKT C5FV18AL 1  2   3
* AMP Champ 0.050 FH (vert) 18mm length 82244
R1 1 4 0.010
T4 4 3 2 3 Z0=108 TD=94PS
.ENDS C5FV18AL
**************
*
*****************
*SRC=C5FV18BL;C5FV18BL;Connectors;Open Pin;Champ FH, Row B
*SYM=ZPSLM
.SUBCKT C5FV18BL 1  2   3
* AMP Champ 0.050 FH (vert) 18mm length 82244
R1 1 4 0.009
T4 4 3 2 3 Z0=99 TD=85PS
.ENDS C5FV18BL
**************
*
*****************
*SRC=C5FV18CL;C5FV18CL;Connectors;Open Pin;Champ FH, Row C
*SYM=ZPSLM
.SUBCKT C5FV18CL 1  2   3
* AMP Champ 0.050 FH (vert) 18mm length 82244
R1 1 4 0.009
T4 4 3 2 3 Z0=99 TD=85PS
.ENDS C5FV18CL
**************
*
*****************
*SRC=C5FV18DL;C5FV18DL;Connectors;Open Pin;Champ FH, Row D
*SYM=ZPSLM
.SUBCKT C5FV18DL 1  2   3
* AMP Champ 0.050 FH (vert) 18mm length 82244
R1 1 4 0.010
T4 4 3 2 3 Z0=108 TD=94PS
.ENDS C5FV18DL
**************
*
******************************************************
*                        *   AMP Connector Catalog No.
*  CHAMP 0.050 FH (vert) *          82244
*    13 mm length        *
**************************
*  rev 3/1/94
*
* THE FOLLOWING RLC MODELS ARE APPROPRIATE
* FOR EDGE SPEEDS OF 500PS OR SLOWER
*
****************** RLC MODELS ********************
*
********
*SRC=C5FV13M;C5FV13M;Connectors;Open Pin;Champ FH, Median Value
*SYM=ZPSLM
.SUBCKT C5FV13M 1  2   3
* AMP Champ 0.050 FH (vert) 13mm length 82244
R1 1 4 0.004
L4 4 5 3.5NH
C5 5 3 0.8PF
L5 5 6 3.5NH
R6 6 2 0.004
.ENDS C5FV13M
*************
*
****************
*SRC=C5FV13A;C5FV13A;Connectors;Open Pin;Champ FH, Row A
*SYM=ZPSLM
.SUBCKT C5FV13A 1  2   3
* AMP Champ 0.050 FH (vert) 13mm length 82244
R1 1 4 0.005
L4 4 5 3.8NH
C5 5 3 0.7PF
L5 5 6 3.8NH
R6 6 2 0.004
.ENDS C5FV13A
*************
*
****************
*SRC=C5FV13B;C5FV13B;Connectors;Open Pin;Champ FH, Row B
*SYM=ZPSLM
.SUBCKT C5FV13B 1  2   3
* AMP Champ 0.050 FH (vert) 13mm length 82244
R1 1 4 0.004
L4 4 5 3.1NH
C5 5 3 0.7PF
L5 5 6 3.1NH
R6 6 2 0.004
.ENDS C5FV13B
*************
*
****************
*SRC=C5FV13C;C5FV13C;Connectors;Open Pin;Champ FH, Row C
*SYM=ZPSLM
.SUBCKT C5FV13C 1  2   3
* AMP Champ 0.050 FH (vert) 13mm length 82244
R1 1 4 0.004
L4 4 5 3.1NH
C5 5 3 0.7PF
L5 5 6 3.1NH
R6 6 2 0.004
.ENDS C5FV13C
*************
*
****************
*SRC=C5FV13D;C5FV13D;Connectors;Open Pin;Champ FH, Row D
*SYM=ZPSLM
.SUBCKT C5FV13D 1  2   3
* AMP Champ 0.050 FH (vert) 13mm length 82244
R1 1 4 0.005
L4 4 5 3.8NH
C5 5 3 0.8PF
L5 5 6 3.8NH
R6 6 2 0.004
.ENDS C5FV13D
*************
*
********** TRANSMISSION LINE MODELS **************
*
*********
*SRC=C5FV13ML;C5FV13ML;Connectors;Open Pin;Champ FH, Median Value
*SYM=ZPSLM
.SUBCKT C5FV13ML 1  2   3
* AMP Champ 0.050 FH (vert) 13mm length 82244
R1 1 4 0.008
T4 4 3 2 3 Z0=96 TD=72PS
.ENDS C5FV13ML
**************
*
*****************
*SRC=C5FV13AL;C5FV13AL;Connectors;Open Pin;Champ FH, Row A
*SYM=ZPSLM
.SUBCKT C5FV13AL 1  2   3
* AMP Champ 0.050 FH (vert) 13mm length 82244
R1 1 4 0.009
T4 4 3 2 3 Z0=101 TD=76PS
.ENDS C5FV13AL
**************
*
*****************
*SRC=C5FV13BL;C5FV13BL;Connectors;Open Pin;Champ FH, Row B
*SYM=ZPSLM
.SUBCKT C5FV13BL 1  2   3
* AMP Champ 0.050 FH (vert) 13mm length 82244
R1 1 4 0.008
T4 4 3 2 3 Z0=91 TD=68PS
.ENDS C5FV13BL
**************
*
*****************
*SRC=C5FV13CL;C5FV13CL;Connectors;Open Pin;Champ FH, Row C
*SYM=ZPSLM
.SUBCKT C5FV13CL 1  2   3
* AMP Champ 0.050 FH (vert) 13mm length 82244
R1 1 4 0.008
T4 4 3 2 3 Z0=91 TD=68PS
.ENDS C5FV13CL
**************
*
*****************
*SRC=C5FV13DL;C5FV13DL;Connectors;Open Pin;Champ FH, Row D
*SYM=ZPSLM
.SUBCKT C5FV13DL 1  2   3
* AMP Champ 0.050 FH (vert) 13mm length 82244
R1 1 4 0.009
T4 4 3 2 3 Z0=101 TD=76PS
.ENDS C5FV13DL
**************
*
******************************************************
*                        *   AMP Connector Catalog No.
*  CHAMP 0.050 FH (vert) *           82244
*     9 mm length        *
**************************
*   rev 3/1/94
*
* THE FOLLOWING RLC MODELS ARE APPROPRIATE
* FOR EDGE SPEEDS OF 500PS OR SLOWER
*
****************** RLC MODELS ********************
*
********
*SRC=C5FV09M;C5FV09M;Connectors;Open Pin;Champ FH, Median Value
*SYM=ZPSLM
.SUBCKT C5FV09M 1  2   3
* AMP Champ 0.050 FH (vert) 9mm length 82244
R1 1 4 0.004
L4 4 5 2.5NH
C5 5 3 0.7PF
L5 5 6 2.5NH
R6 6 2 0.004
.ENDS C5FV09M
*************
*
****************
*SRC=C5FV09A;C5FV09A;Connectors;Open Pin;Champ FH, Row A
*SYM=ZPSLM
.SUBCKT C5FV09A 1  2   3
* AMP Champ 0.050 FH (vert) 9mm length 82244
R1 1 4 0.004
L4 4 5 2.8NH
C5 5 3 0.7PF
L5 5 6 2.8NH
R6 6 2 0.004
.ENDS C5FV09A
*************
*
****************
*SRC=C5FV09B;C5FV09B;Connectors;Open Pin;Champ FH, Row B
*SYM=ZPSLM
.SUBCKT C5FV09B 1  2   3
* AMP Champ 0.050 FH (vert) 9mm length 82244
R1 1 4 0.003
L4 4 5 2.2NH
C5 5 3 0.7PF
L5 5 6 2.2NH
R6 6 2 0.003
.ENDS C5FV09B
*************
*
****************
*SRC=C5FV09C;C5FV09C;Connectors;Open Pin;Champ FH, Row C
*SYM=ZPSLM
.SUBCKT C5FV09C 1  2   3
* AMP Champ 0.050 FH (vert) 9mm length 82244
R1 1 4 0.003
L4 4 5 2.2NH
C5 5 3 0.7PF
L5 5 6 2.2NH
R6 6 2 0.003
.ENDS C5FV09C
*************
*
****************
*SRC=C5FV09D;C5FV09D;Connectors;Open Pin;Champ FH, Row D
*SYM=ZPSLM
.SUBCKT C5FV09D 1  2   3
* AMP Champ 0.050 FH (vert) 9mm length 82244
R1 1 4 0.004
L4 4 5 2.8NH
C5 5 3 0.7PF
L5 5 6 2.8NH
R6 6 2 0.004
.ENDS C5FV09D
*************
*
********** TRANSMISSION LINE MODELS **************
*
*********
*SRC=C5FV09ML;C5FV09ML;Connectors;Open Pin;Champ FH, Median Value
*SYM=ZPSLM
.SUBCKT C5FV09ML 1  2   3
* AMP Champ 0.050 FH (vert) 9mm length 82244
R1 1 4 0.007
T4 4 3 2 3 Z0=87 TD=57PS
.ENDS C5FV09ML
**************
*
*****************
*SRC=C5FV09AL;C5FV09AL;Connectors;Open Pin;Champ FH, Row A
*SYM=ZPSLM
.SUBCKT C5FV09AL 1  2   3
* AMP Champ 0.050 FH (vert) 9mm length 82244
R1 1 4 0.007
T4 4 3 2 3 Z0=92 TD=61PS
.ENDS C5FV09AL
**************
*
*****************
*SRC=C5FV09BL;C5FV09BL;Connectors;Open Pin;Champ FH, Row B
*SYM=ZPSLM
.SUBCKT C5FV09BL 1  2   3
* AMP Champ 0.050 FH (vert) 9mm length 82244
R1 1 4 0.006
T4 4 3 2 3 Z0=82 TD=53PS
.ENDS C5FV09BL
**************
*
*****************
*SRC=C5FV09CL;C5FV09CL;Connectors;Open Pin;Champ FH, Row C
*SYM=ZPSLM
.SUBCKT C5FV09CL 1  2   3
* AMP Champ 0.050 FH (vert) 9mm length 82244
R1 1 4 0.006
T4 4 3 2 3 Z0=82 TD=53PS
.ENDS C5FV09CL
**************
*
*****************
*SRC=C5FV09DL;C5FV09DL;Connectors;Open Pin;Champ FH, Row D
*SYM=ZPSLM
.SUBCKT C5FV09DL 1  2   3
* AMP Champ 0.050 FH (vert) 9mm length 82244
R1 1 4 0.007
T4 4 3 2 3 Z0=92 TD=61PS
.ENDS C5FV09DL
******************************************************
*                        *   AMP Connector Catalog No.
*  CHAMP 0.050 FH (VERT) *           82244
*      8 mm length       *
**************************
*  rev 5/12/96
*
* THE FOLLOWING RLC MODELS ARE APPROPRIATE
* FOR EDGE SPEEDS OF 500PS OR SLOWER
*
****************** RLC MODELS ********************
*
********
*SRC=C5FV8M;C5FV8M;Connectors;Open Pin;Champ .05FH, Median
*SYM=ZPSLM
.SUBCKT C5FV8M 1  2   3
*             IN  OUT REF
R1 1 4 0.003
L4 4 5 2.3NH
C5 5 3 0.6PF
L5 5 6 2.3NH
R6 6 2 0.003
.ENDS C5FV8M
*************
*SRC=C5FV8AD;C5FV8AD;Connectors;Open Pin;Champ .05FH, Row A/D
*SYM=ZPSLM
.SUBCKT C5FV8AD 1  2   3
*             IN  OUT REF
R1 1 4 0.004
L4 4 5 2.6NH
C5 5 3 0.6PF
L5 5 6 2.6NH
R6 6 2 0.004
.ENDS C5FV8AD
***********
*SRC=C5FV8BC;C5FV8BC;Connectors;Open Pin;Champ .05FH, Row B/C
*SYM=ZPSLM
.SUBCKT C5FV8BC 1  2   3
*             IN  OUT REF
R1 1 4 0.003
L4 4 5 2.0NH
C5 5 3 0.6PF
L5 5 6 2.0NH
R6 6 2 0.003
.ENDS C5FV8BC
*************
*
********** TRANSMISSION LINE MODELS **************
*
************
*SRC=C5FV8ML;C5FV8ML;Connectors;Open Pin;Champ .05FH, Median
*SYM=ZPSLM
.SUBCKT C5FV8ML 1  2   3
*             IN  OUT REF
R1 1 4 0.007
T4 4 3 2 3 Z0=87 TD=52PS
.ENDS C5FV8ML
**************
*SRC=C5FV8ADL;C5FV8ADL;Connectors;Open Pin;Champ .05FH, Row A/D
*SYM=ZPSLM
.SUBCKT C5FV8ADL 1  2   3
*             IN  OUT REF
R1 1 4 0.007
T4 4 3 2 3 Z0=92 TD=56PS
.ENDS C5FV8ADL
**************
*SRC=C5FV8BCL;C5FV8BCL;Connectors;Open Pin;Champ .05FH, Row B/C
*SYM=ZPSLM
.SUBCKT C5FV8BCL 1  2   3
*             IN  OUT REF
R1 1 4 0.006
T4 4 3 2 3 Z0=82 TD=47PS
.ENDS C5FV8BCL
**************
*
*********************************************************
*                           *   AMP Connector Catalog No.
* CHAMP BLINDMATE, STRADLE  *           82244
* MOUNT TO VERTICAL,        *
* STANDARD HEIGHT           *
*******************************
*  rev 5/13/96
*
* THE FOLLOWING RLC MODELS ARE APPROPRIATE
* FOR EDGE SPEEDS OF 1NS OR SLOWER
*
*
****************** RLC MODELS ********************
*
**** MEDIAN VALUES ****
*SRC=CBSMVSM;CBSMVSM;Connectors;Open Pin;Champ Blindmate Median
*SYM=ZPSLM
.SUBCKT CBSMVSM 1  2   3
*             IN  OUT REF
R1 1 4 0.005
L4 4 5 2.7NH
C5 5 3 1.3PF
L5 5 6 2.7NH
R6 6 2 0.005
.ENDS CBSMVSM
***********
*SRC=CBSMVSA;CBSMVSA;Connectors;Open Pin;Champ Blindmate Row A
*SYM=ZPSLM
.SUBCKT CBSMVSA 1  2   3
*             IN  OUT REF
R1 1 4 0.005
L4 4 5 2.7NH
C5 5 3 1.3PF
L5 5 6 2.7NH
R6 6 2 0.005
.ENDS CBSMVSA
***********
*SRC=CBSMVSB;CBSMVSB;Connectors;Open Pin;Champ Blindmate Row B
*SYM=ZPSLM
.SUBCKT CBSMVSB 1  2   3
*             IN  OUT REF
R1 1 4 0.005
L4 4 5 2.6NH
C5 5 3 1.4PF
L5 5 6 2.6NH
R6 6 2 0.005
.ENDS CBSMVSB
***********
*SRC=CBSMVSC;CBSMVSC;Connectors;Open Pin;Champ Blindmate Row C
*SYM=ZPSLM
.SUBCKT CBSMVSC 1  2   3
*             IN  OUT REF
R1 1 4 0.005
L4 4 5 2.6NH
C5 5 3 1.3PF
L5 5 6 2.6NH
R6 6 2 0.005
.ENDS CBSMVSC
***********
*SRC=CBSMVSD;CBSMVSD;Connectors;Open Pin;Champ Blindmate Row D
*SYM=ZPSLM
.SUBCKT CBSMVSD 1  2   3
*             IN  OUT REF
R1 1 4 0.005
L4 4 5 2.7NH
C5 5 3 1.3PF
L5 5 6 2.7NH
R6 6 2 0.005
.ENDS CBSMVSD
***********
*
********** TRANSMISSION LINE MODELS **************
*
********
*SRC=CBSMVSML;CBSMVSML;Connectors;Open Pin;Champ Blindmate Median
*SYM=ZPSLM
.SUBCKT CBSMVSML 1  2   3
*             IN  OUT REF
R1 1 4 0.010
T4 4 3 2 3 Z0=64 TD=83PS
.ENDS CBSMVSML
************
*SRC=CBSMVSAL;CBSMVSAL;Connectors;Open Pin;Champ Blindmate Row A
*SYM=ZPSLM
.SUBCKT CBSMVSAL 1  2   3
*             IN  OUT REF
R1 1 4 0.010
T4 4 3 2 3 Z0=65 TD=83PS
.ENDS CBSMVSAL
************
*SRC=CBSMVSBL;CBSMVSBL;Connectors;Open Pin;Champ Blindmate Row B
*SYM=ZPSLM
.SUBCKT CBSMVSBL 1  2   3
*             IN  OUT REF
R1 1 4 0.010
T4 4 3 2 3 Z0=62 TD=84PS
.ENDS CBSMVSBL
************
*SRC=CBSMVSCL;CBSMVSCL;Connectors;Open Pin;Champ Blindmate Row C
*SYM=ZPSLM
.SUBCKT CBSMVSCL 1  2   3
*             IN  OUT REF
R1 1 4 0.010
T4 4 3 2 3 Z0=62 TD=83PS
.ENDS CBSMVSCL
************
*SRC=CBSMVSDL;CBSMVSDL;Connectors;Open Pin;Champ Blindmate Row D
*SYM=ZPSLM
.SUBCKT CBSMVSDL 1  2   3
*             IN  OUT REF
R1 1 4 0.010
T4 4 3 2 3 Z0=66 TD=83PS
.ENDS CBSMVSDL
************
*
*********************************************************
*                           *   AMP Connector Catalog No.
* CHAMP BLINDMATE, STRADLE  *           82244
* MOUNT TO VERTICAL,        *
* EXTENDED HEIGHT           *
*******************************
*  rev 5/13/96
*
* THE FOLLOWING RLC MODELS ARE APPROPRIATE
* FOR EDGE SPEEDS OF 1NS OR SLOWER
*
****************** RLC MODELS ********************
*
********