****************************
*COPYRIGHT 1994, BY AMP INCORPORATED*
**ALL INTERNATIONAL RIGHTS RESERVED**
*************************************
*****************************************************
*                       *   AMP Connector Catalog No.
*    TBC 6 ROW RA       *           82618
*                       *
*************************
*   rev 3/1/94
*
* THE FOLLOWING RLC MODELS ARE APPROPRIATE
* FOR EDGE SPEEDS OF 750PS OR SLOWER
*
****************** RLC MODELS ********************
*
***********
*SRC=TBC6M;TBC6M;Connectors;Open Pin;TBC 6, Median Value
*SYM=ZPSLM
.SUBCKT TBC6M 1  2   3
* AMP Open Pin Field TBC 6 Row RA, 82618
R1 1 4 0.003
L4 4 5 4.3NH
C5 5 3 2.1PF
L5 5 6 4.3NH
R6 6 2 0.003
.ENDS TBC6M
***********
*
****************
*SRC=TBC6A;TBC6A;Connectors;Open Pin;TBC 6, Row A
*SYM=ZPSLM
.SUBCKT TBC6A 1  2   3
* AMP Open Pin Field TBC 6 Row RA, 82618
R1 1 4 0.002
L4 4 5 2.6NH
C5 5 3 1.3PF
L5 5 6 2.6NH
R6 6 2 0.002
.ENDS TBC6A
***********
*
****************
*SRC=TBC6B;TBC6B;Connectors;Open Pin;TBC 6, Row B
*SYM=ZPSLM
.SUBCKT TBC6B 1  2   3
* AMP Open Pin Field TBC 6 Row RA, 82618
R1 1 4 0.002
L4 4 5 2.7NH
C5 5 3 1.8PF
L5 5 6 2.7NH
R6 6 2 0.002
.ENDS TBC6B
***********
*
****************
*SRC=TBC6C;TBC6C;Connectors;Open Pin;TBC 6, Row C
*SYM=ZPSLM
.SUBCKT TBC6C 1  2   3
* AMP Open Pin Field TBC 6 Row RA, 82618
R1 1 4 0.002
L4 4 5 3.7NH
C5 5 3 2.1PF
L5 5 6 3.7NH
R6 6 2 0.002
.ENDS TBC6C
***********
*
****************
*SRC=TBC6D;TBC6D;Connectors;Open Pin;TBC 6, Row D
*SYM=ZPSLM
.SUBCKT TBC6D 1  2   3
* AMP Open Pin Field TBC 6 Row RA, 82618
R1 1 4 0.003
L4 4 5 4.6NH
C5 5 3 2.3PF
L5 5 6 4.6NH
R6 6 2 0.003
.ENDS TBC6D
***********
*
****************
*SRC=TBC6E;TBC6E;Connectors;Open Pin;TBC 6, Row E
*SYM=ZPSLM
.SUBCKT TBC6E 1  2   3
* AMP Open Pin Field TBC 6 Row RA, 82618
R1 1 4 0.003
L4 4 5 5.6NH
C5 5 3 2.5PF
L5 5 6 5.6NH
R6 6 2 0.003
.ENDS TBC6E
***********
*
****************
*SRC=TBC6F;TBC6F;Connectors;Open Pin;TBC 6, Row F
*SYM=ZPSLM
.SUBCKT TBC6F 1  2   3
* AMP Open Pin Field TBC 6 Row RA, 82618
R1 1 4 0.003
L4 4 5 6.3NH
C5 5 3 2.5PF
L5 5 6 6.3NH
R6 6 2 0.003
.ENDS TBC6F
***********
*
********** TRANSMISSION LINE MODELS **************
*
*********
*SRC=TBC6ML;TBC6ML;Connectors;Open Pin;TBC 6, Median Value
*SYM=ZPSLM
.SUBCKT TBC6ML 1  2   3
* AMP Open Pin Field TBC 6 Row RA, 82618
R1 1 4 0.005
T4 4 3 2 3 Z0=64 TD=120PS
.ENDS TBC6ML
************
*
*****************
*SRC=TBC6AL;TBC6AL;Connectors;Open Pin;TBC 6, Row A
*SYM=ZPSLM
.SUBCKT TBC6AL 1  2   3
* AMP Open Pin Field TBC 6 Row RA, 82618
R1 1 4 0.003
T4 4 3 2 3 Z0=63 TD=70PS
.ENDS TBC6AL
************
*
*****************
*SRC=TBC6BL;TBC6BL;Connectors;Open Pin;TBC 6, Row B
*SYM=ZPSLM
.SUBCKT TBC6BL 1  2   3
* AMP Open Pin Field TBC 6 Row RA, 82618
R1 1 4 0.003
T4 4 3 2 3 Z0=55 TD=90PS
.ENDS TBC6BL
************
*
*****************
*SRC=TBC6CL;TBC6CL;Connectors;Open Pin;TBC 6, Row C
*SYM=ZPSLM
.SUBCKT TBC6CL 1  2   3
* AMP Open Pin Field TBC 6 Row RA, 82618
R1 1 4 0.004
T4 4 3 2 3 Z0=59 TD=110PS
.ENDS TBC6CL
************
*
*****************
*SRC=TBC6DL;TBC6DL;Connectors;Open Pin;TBC 6, Row D
*SYM=ZPSLM
.SUBCKT TBC6DL 1  2   3
* AMP Open Pin Field TBC 6 Row RA, 82618
R1 1 4 0.005
T4 4 3 2 3 Z0=63 TD=130PS
.ENDS TBC6DL
************
*
*****************
*SRC=TBC6EL;TBC6EL;Connectors;Open Pin;TBC 6, Row E
*SYM=ZPSLM
.SUBCKT TBC6EL 1  2   3
* AMP Open Pin Field TBC 6 Row RA, 82618
R1 1 4 0.006
T4 4 3 2 3 Z0=67 TD=150PS
.ENDS TBC6EL
************
*
*****************
*SRC=TBC6FL;TBC6FL;Connectors;Open Pin;TBC 6, Row F
*SYM=ZPSLM
.SUBCKT TBC6FL 1  2   3
* AMP Open Pin Field TBC 6 Row RA, 82618
R1 1 4 0.005
T4 4 3 2 3 Z0=71 TD=160PS
.ENDS TBC6FL
************
*
*****************************************************
*                       *   AMP Connector Catalog No.
*    TBC 5 ROW RA       *           82618
*                       *
*************************
*  rev 3/1/94
*
* THE FOLLOWING RLC MODELS ARE APPROPRIATE
* FOR EDGE SPEEDS OF 750PS OR SLOWER
*
****************** RLC MODELS ********************
*
********
*SRC=TBC5M;TBC5M;Connectors;Open Pin;TBC 5, Median Value
*SYM=ZPSLM
.SUBCKT TBC5M 1  2   3
* AMP Open Pin Field TBC 5 Row RA, 82618
R1 1 4 0.002
L4 4 5 4.0NH
C5 5 3 2.0PF
L5 5 6 4.0NH
R6 6 2 0.002
.ENDS TBC5M
***********
*
****************
*SRC=TBC5A;TBC5A;Connectors;Open Pin;TBC 5, Row A
*SYM=ZPSLM
.SUBCKT TBC5A 1  2   3
* AMP Open Pin Field TBC 5 Row RA, 82618
R1 1 4 0.002
L4 4 5 2.6NH
C5 5 3 1.3PF
L5 5 6 2.6NH
R6 6 2 0.002
.ENDS TBC5A
***********
*
****************
*SRC=TBC5B;TBC5B;Connectors;Open Pin;TBC 5, Row B
*SYM=ZPSLM
.SUBCKT TBC5B 1  2   3
* AMP Open Pin Field TBC 5 Row RA, 82618
R1 1 4 0.002
L4 4 5 2.7NH
C5 5 3 1.8PF
L5 5 6 2.7NH
R6 6 2 0.002
.ENDS TBC5B
***********
*
****************
*SRC=TBC5C;TBC5C;Connectors;Open Pin;TBC 5, Row C
*SYM=ZPSLM
.SUBCKT TBC5C 1  2   3
* AMP Open Pin Field TBC 5 Row RA, 82618
R1 1 4 0.002
L4 4 5 3.7NH
C5 5 3 2.1PF
L5 5 6 3.7NH
R6 6 2 0.002
.ENDS TBC5C
***********
*
****************
*SRC=TBC5D;TBC5D;Connectors;Open Pin;TBC 5, Row D
*SYM=ZPSLM
.SUBCKT TBC5D 1  2   3
* AMP Open Pin Field TBC 5 Row RA, 82618
R1 1 4 0.003
L4 4 5 4.6NH
C5 5 3 2.3PF
L5 5 6 4.6NH
R6 6 2 0.003
.ENDS TBC5D
***********
*
****************
*SRC=TBC5E;TBC5E;Connectors;Open Pin;TBC 5, Row E
*SYM=ZPSLM
.SUBCKT TBC5E 1  2   3
* AMP Open Pin Field TBC 5 Row RA, 82618
R1 1 4 0.003
L4 4 5 6.2NH
C5 5 3 2.3PF
L5 5 6 6.2NH
R6 6 2 0.003
.ENDS TBC5E
***********
*
********** TRANSMISSION LINE MODELS **************
*
*********
*SRC=TBC5ML;TBC5ML;Connectors;Open Pin;TBC 5, Row ATBC 5, Median Value
*SYM=ZPSLM
.SUBCKT TBC5ML 1  2   3
* AMP Open Pin Field TBC 5 Row RA, 82618
R1 1 4 0.004
T4 4 3 2 3 Z0=64 TD=110PS
.ENDS TBC5ML
************
*
*****************
*SRC=TBC5AL;TBC5AL;Connectors;Open Pin;TBC 5, Row A
*SYM=ZPSLM
.SUBCKT TBC5AL 1  2   3
* AMP Open Pin Field TBC 5 Row RA, 82618
R1 1 4 0.003
T4 4 3 2 3 Z0=63 TD=70PS
.ENDS TBC5AL
************
*
*****************
*SRC=TBC5BL;TBC5BL;Connectors;Open Pin;TBC 5, Row B
*SYM=ZPSLM
.SUBCKT TBC5BL 1  2   3
* AMP Open Pin Field TBC 5 Row RA, 82618
R1 1 4 0.003
T4 4 3 2 3 Z0=55 TD=90PS
.ENDS TBC5BL
************
*
*****************
*SRC=TBC5CL;TBC5CL;Connectors;Open Pin;TBC 5, Row C
*SYM=ZPSLM
.SUBCKT TBC5CL 1  2   3
* AMP Open Pin Field TBC 5 Row RA, 82618
R1 1 4 0.004
T4 4 3 2 3 Z0=59 TD=110PS
.ENDS TBC5CL
************
*
*****************
*SRC=TBC5DL;TBC5DL;Connectors;Open Pin;TBC 5, Row D
*SYM=ZPSLM
.SUBCKT TBC5DL 1  2   3
* AMP Open Pin Field TBC 5 Row RA, 82618
R1 1 4 0.005
T4 4 3 2 3 Z0=63 TD=130PS
.ENDS TBC5DL
************
*
*****************
*SRC=TBC5EL;TBC5EL;Connectors;Open Pin;TBC 5, Row E
*SYM=ZPSLM
.SUBCKT TBC5EL 1  2   3
* AMP Open Pin Field TBC 5 Row RA, 82618
R1 1 4 0.006
T4 4 3 2 3 Z0=73 TD=150PS
.ENDS TBC5EL
************
*
*****************************************************
*                       *   AMP Connector Catalog No.
*     TBC 4 ROW RA      *           82618
*                       *
*************************
*  rev 3/1/94
*
* THE FOLLOWING RLC MODELS ARE APPROPRIATE
* FOR EDGE SPEEDS OF 750PS OR SLOWER
*
****************** RLC MODELS ********************
*
*******
*SRC=TBC4M;TBC4M;Connectors;Open Pin;TBC 4, Median Value
*SYM=ZPSLM
.SUBCKT TBC4M 1  2   3
* AMP Open Pin Field TBC 4 Row RA, 82618
R1 1 4 0.002
L4 4 5 5.0NH
C5 5 3 1.8PF
L5 5 6 5.0NH
R6 6 2 0.002
.ENDS TBC4M
***********
*
****************
*SRC=TBC4A;TBC4A;Connectors;Open Pin;TBC 4, Row A
*SYM=ZPSLM
.SUBCKT TBC4A 1  2   3
* AMP Open Pin Field TBC 4 Row RA, 82618
R1 1 4 0.002
L4 4 5 3.5NH
C5 5 3 1.4PF
L5 5 6 3.5NH
R6 6 2 0.002
.ENDS TBC4A
***********
*
****************
*SRC=TBC4B;TBC4B;Connectors;Open Pin;TBC 4, Row B
*SYM=ZPSLM
.SUBCKT TBC4B 1  2   3
* AMP Open Pin Field TBC 4 Row RA, 82618
R1 1 4 0.002
L4 4 5 4.3NH
C5 5 3 1.8PF
L5 5 6 4.3NH
R6 6 2 0.002
.ENDS TBC4B
***********
*
****************
*SRC=TBC4C;TBC4C;Connectors;Open Pin;TBC 4, Row C
*SYM=ZPSLM
.SUBCKT TBC4C 1  2   3
* AMP Open Pin Field TBC 4 Row RA, 82618
R1 1 4 0.003
L4 4 5 5.3NH
C5 5 3 2.0PF
L5 5 6 5.3NH
R6 6 2 0.003
.ENDS TBC4C
***********
*
****************
*SRC=TBC4D;TBC4D;Connectors;Open Pin;TBC 4, Row D
*SYM=ZPSLM
.SUBCKT TBC4D 1  2   3
* AMP Open Pin Field TBC 4 Row RA, 82618
R1 1 4 0.003
L4 4 5 7.0NH
C5 5 3 2.0PF
L5 5 6 7.0NH
R6 6 2 0.003
.ENDS TBC4D
***********
*
********** TRANSMISSION LINE MODELS **************
*
*********
*SRC=TBC4ML;TBC4ML;Connectors;Open Pin;TBC 4, Median Value
*SYM=ZPSLM
.SUBCKT TBC4ML 1  2   3
* AMP Open Pin Field TBC 4 Row RA, 82618
R1 1 4 0.004
T4 4 3 2 3 Z0=75 TD=120PS
.ENDS TBC4ML
************
*
*****************
*SRC=TBC4AL;TBC4AL;Connectors;Open Pin;TBC 4, Row A
*SYM=ZPSLM
.SUBCKT TBC4AL 1  2   3
* AMP Open Pin Field TBC 4 Row RA, 82618
R1 1 4 0.003
T4 4 3 2 3 Z0=71 TD=90PS
.ENDS TBC4AL
************
*
*****************
*SRC=TBC4BL;TBC4BL;Connectors;Open Pin;TBC 4, Row B
*SYM=ZPSLM
.SUBCKT TBC4BL 1  2   3
* AMP Open Pin Field TBC 4 Row RA, 82618
R1 1 4 0.004
T4 4 3 2 3 Z0=69 TD=110PS
.ENDS TBC4BL
************
*
*****************
*SRC=TBC4CL;TBC4CL;Connectors;Open Pin;TBC 4, Row C
*SYM=ZPSLM
.SUBCKT TBC4CL 1  2   3
* AMP Open Pin Field TBC 4 Row RA, 82618
R1 1 4 0.005
T4 4 3 2 3 Z0=73 TD=130PS
.ENDS TBC4CL
************
*
*****************
*SRC=TBC4DL;TBC4DL;Connectors;Open Pin;TBC 4, Row D
*SYM=ZPSLM
.SUBCKT TBC4DL 1  2   3
* AMP Open Pin Field TBC 4 Row RA, 82618
R1 1 4 0.006
T4 4 3 2 3 Z0=84 TD=150PS
.ENDS TBC4DL
************
*
******************************************************
*                        *   AMP Connector Catalog No.
*  PCMCIA 88 POS (RA)    *          n/a
*                        *
**************************
*  rev 3/1/94
*
* THE FOLLOWING RLC MODELS ARE APPROPRIATE
* FOR EDGE SPEEDS OF 500PS OR SLOWER
*
*
****************** RLC MODELS ********************
*
********
*SRC=PC88M;PC88M;Connectors;Open Pin;PCMCIA 88, Median Value
*SYM=ZPSLM
.SUBCKT PC88M 1  2   3
* AMP Open Pin Field PCMCIA 88 POS RA
R1 1 4 0.007
L4 4 5 4.1NH
C5 5 3 1.0PF
L5 5 6 4.0NH
R6 6 2 0.006
.ENDS PC88M
***********
*
****************
*SRC=PC88A;PC88A;Connectors;Open Pin;PCMCIA 88, Row A
*SYM=ZPSLM
.SUBCKT PC88A 1  2   3
* AMP Open Pin Field PCMCIA 88 POS RA
R1 1 4 0.006
L4 4 5 3.2NH
C5 5 3 0.9PF
L5 5 6 3.1NH
R6 6 2 0.005
.ENDS PC88A
***********
*
****************
*SRC=PC88B;PC88B;Connectors;Open Pin;PCMCIA 88, Row B
*SYM=ZPSLM
.SUBCKT PC88B 1  2   3
* AMP Open Pin Field PCMCIA 88 POS RA
R1 1 4 0.006
L4 4 5 3.6NH
C5 5 3 0.9PF
L5 5 6 3.6NH
R6 6 2 0.006
.ENDS PC88B
***********
*
****************
*SRC=PC88C;PC88C;Connectors;Open Pin;PCMCIA 88, Row C
*SYM=ZPSLM
.SUBCKT PC88C 1  2   3
* AMP Open Pin Field PCMCIA 88 POS RA
R1 1 4 0.007
L4 4 5 4.2NH
C5 5 3 1.0PF
L5 5 6 4.1NH
R6 6 2 0.006
.ENDS PC88C
***********
*
****************
*SRC=PC88D;PC88D;Connectors;Open Pin;PCMCIA 88, Row D
*SYM=ZPSLM
.SUBCKT PC88D 1  2   3
* AMP Open Pin Field PCMCIA 88 POS RA
R1 1 4 0.007
L4 4 5 5.2NH
C5 5 3 1.0PF
L5 5 6 5.2NH
R6 6 2 0.007
.ENDS PC88D
***********
*
********** TRANSMISSION LINE MODELS **************
*
*********
*SRC=PC88ML;PC88ML;Connectors;Open Pin;PCMCIA 88, Median Value
*SYM=ZPSLM
.SUBCKT PC88ML 1  2   3
* AMP Open Pin Field PCMCIA 88 POS RA
R1 1 4 0.013
T4 4 3 2 3 Z0=91 TD=89PS
.ENDS PC88ML
************
*
*****************
*SRC=PC88AL;PC88AL;Connectors;Open Pin;PCMCIA 88, Row A
*SYM=ZPSLM
.SUBCKT PC88AL 1  2   3
* AMP Open Pin Field PCMCIA 88 POS RA
R1 1 4 0.011
T4 4 3 2 3 Z0=84 TD=75PS
.ENDS PC88AL
************
*
*****************
*SRC=PC88BL;PC88BL;Connectors;Open Pin;PCMCIA 88, Row B
*SYM=ZPSLM
.SUBCKT PC88BL 1  2   3
* AMP Open Pin Field PCMCIA 88 POS RA
R1 1 4 0.012
T4 4 3 2 3 Z0=88 TD=82PS
.ENDS PC88BL
************
*
*****************
*SRC=PC88CL;PC88CL;Connectors;Open Pin;PCMCIA 88, Row C
*SYM=ZPSLM
.SUBCKT PC88CL 1  2   3
* AMP Open Pin Field PCMCIA 88 POS RA
R1 1 4 0.013
T4 4 3 2 3 Z0=90 TD=93PS
.ENDS PC88CL
************
*
*****************
*SRC=PC88DL;PC88DL;Connectors;Open Pin;PCMCIA 88, Row D
*SYM=ZPSLM
.SUBCKT PC88DL 1  2   3
* AMP Open Pin Field PCMCIA 88 POS RA
R1 1 4 0.014
T4 4 3 2 3 Z0=100 TD=104PS
.ENDS PC88DL
************
*
******************************************************
*                        *   AMP Connector Catalog No.
*  PCMCIA 68 POS (RA)    *           65701
*                        *
**************************
*  rev 3/1/94
*
* THE FOLLOWING RLC MODELS ARE APPROPRIATE
* FOR EDGE SPEEDS OF 500PS OR SLOWER
*
*
****************** RLC MODELS ********************
*
*******
*SRC=PC68M;PC68M;Connectors;Open Pin;PCMCIA 68, Median Value
*SYM=ZPSLM
.SUBCKT PC68M 1  2   3
* AMP Open Pin Field PCMCIA 68 POS RA, 65701
R1 1 4 0.006
L4 4 5 4.3NH
C5 5 3 1.0PF
L5 5 6 4.3NH
R6 6 2 0.006
.ENDS PC68M
***********
*
****************
*SRC=PC68A;PC68A;Connectors;Open Pin;PCMCIA 68, Row A
*SYM=ZPSLM
.SUBCKT PC68A 1  2   3
* AMP Open Pin Field PCMCIA 68 POS RA, 65701
R1 1 4 0.006
L4 4 5 3.5NH
C5 5 3 0.9PF
L5 5 6 3.4NH
R6 6 2 0.005
.ENDS PC68A
***********
*
****************
*SRC=PC68B;PC68B;Connectors;Open Pin;PCMCIA 68, Row B
*SYM=ZPSLM
.SUBCKT PC68B 1  2   3
* AMP Open Pin Field PCMCIA 68 POS RA, 65701
R1 1 4 0.006
L4 4 5 3.8NH
C5 5 3 0.9PF
L5 5 6 3.8NH
R6 6 2 0.006
.ENDS PC68B
***********
*
****************
*SRC=PC68C;PC68C;Connectors;Open Pin;PCMCIA 68, Row C
*SYM=ZPSLM
.SUBCKT PC68C 1  2   3
* AMP Open Pin Field PCMCIA 68 POS RA, 65701
R1 1 4 0.007
L4 4 5 4.6NH
C5 5 3 1.0PF
L5 5 6 4.5NH
R6 6 2 0.006
.ENDS PC68C
***********
*
****************
*SRC=PC68D;PC68D;Connectors;Open Pin;PCMCIA 68, Row D
*SYM=ZPSLM
.SUBCKT PC68D 1  2   3
* AMP Open Pin Field PCMCIA 68 POS RA, 65701
R1 1 4 0.007
L4 4 5 5.2NH
C5 5 3 1.1PF
L5 5 6 5.2NH
R6 6 2 0.007
.ENDS PC68D
***********
*
********** TRANSMISSION LINE MODELS **************
*
*********
*SRC=PC68ML;PC68ML;Connectors;Open Pin;PCMCIA 68, Median Value
*SYM=ZPSLM
.SUBCKT PC68ML 1  2   3
* AMP Open Pin Field PCMCIA 68 POS RA, 65701
R1 1 4 0.013
T4 4 3 2 3 Z0=93 TD=93PS
.ENDS PC68ML
************
*
*****************
*SRC=PC68AL;PC68AL;Connectors;Open Pin;PCMCIA 68, Row A
*SYM=ZPSLM
.SUBCKT PC68AL 1  2   3
* AMP Open Pin Field PCMCIA 68 POS RA, 65701
R1 1 4 0.011
T4 4 3 2 3 Z0=88 TD=81PS
.ENDS PC68AL
************
*
*****************
*SRC=PC68BL;PC68BL;Connectors;Open Pin;PCMCIA 68, Row B
*SYM=ZPSLM
.SUBCKT PC68BL 1  2   3
* AMP Open Pin Field PCMCIA 68 POS RA, 65701
R1 1 4 0.012
T4 4 3 2 3 Z0=90 TD=87PS
.ENDS PC68BL
************
*
*****************
*SRC=PC68CL;PC68CL;Connectors;Open Pin;PCMCIA 68, Row C
*SYM=ZPSLM
.SUBCKT PC68CL 1  2   3
* AMP Open Pin Field PCMCIA 68 POS RA, 65701
R1 1 4 0.013
T4 4 3 2 3 Z0=94 TD=98PS
.ENDS PC68CL
************
*
*****************
*SRC=PC68DL;PC68DL;Connectors;Open Pin;PCMCIA 68, Row D
*SYM=ZPSLM
.SUBCKT PC68DL 1  2   3
* AMP Open Pin Field PCMCIA 68 POS RA, 65701
R1 1 4 0.014
T4 4 3 2 3 Z0=99 TD=104PS
.ENDS PC68DL
************
*
******************************************************
*                        *   AMP Connector Catalog No.
*  MODU SYSTEM 50        *           82178
*  RIGHT ANGLE           *
*                        *
**************************
* rev 3/1/94
*
* THE FOLLOWING RLC MODELS ARE APPROPRIATE
* FOR EDGE SPEEDS OF 500PS OR SLOWER
*
*
****************** RLC MODELS ********************
*
********
*SRC=MS5RM;MS5RM;Connectors;Open Pin;ModuSys 50, Median Value
*SYM=ZPSLM
.SUBCKT MS5RM 1  2   3
* AMP Open Pin Field MODU System 50 RA, 82178
R1 1 4 0.005
L4 4 5 2.5NH
C5 5 3 1.1PF
L5 5 6 2.5NH
R6 6 2 0.005
.ENDS MS5RM
***********
*
****************
*SRC=MS5RA;MS5RA;Connectors;Open Pin;ModuSys 50, Row A
*SYM=ZPSLM
.SUBCKT MS5RA 1  2   3
* AMP Open Pin Field MODU System 50 RA, 82178
R1 1 4 0.005
L4 4 5 2.1NH
C5 5 3 1.0PF
L5 5 6 2.0NH
R6 6 2 0.004
.ENDS MS5RA
***********
*
****************
*SRC=MS5RB;MS5RB;Connectors;Open Pin;ModuSys 50, Row B
*SYM=ZPSLM
.SUBCKT MS5RB 1  2   3
* AMP Open Pin Field MODU System 50 RA, 82178
R1 1 4 0.006
L4 4 5 3.0NH
C5 5 3 1.2PF
L5 5 6 3.0NH
R6 6 2 0.005
.ENDS MS5RB
***********
*
********** TRANSMISSION LINE MODELS **************
*
*********
*SRC=MS5RML;MS5RML;Connectors;Open Pin;ModuSys 50, Median Value
*SYM=ZPSLM
.SUBCKT MS5RML 1  2   3
* AMP Open Pin Field MODU System 50 RA, 82178
R1 1 4 0.010
T4 4 3 2 3 Z0=68 TD=75PS
.ENDS MS5RML
************
*
*****************
*SRC=MS5RAL;MS5RAL;Connectors;Open Pin;ModuSys 50, Row A
*SYM=ZPSLM
.SUBCKT MS5RAL 1  2   3
* AMP Open Pin Field MODU System 50 RA, 82178
R1 1 4 0.009
T4 4 3 2 3 Z0=63 TD=65PS
.ENDS MS5RAL
************
*
*****************
*SRC=MS5RBL;MS5RBL;Connectors;Open Pin;ModuSys 50, Row B
*SYM=ZPSLM
.SUBCKT MS5RBL 1  2   3
* AMP Open Pin Field MODU System 50 RA, 82178
R1 1 4 0.011
T4 4 3 2 3 Z0=72 TD=84PS
.ENDS MS5RBL
************
*
****************************************************
*                      *   AMP Connector Catalog No.
*   2mm HM 7 ROW       *           65079
*                      *
************************
*  rev 3/1/94
*
* THE FOLLOWING RLC MODELS ARE APPROPRIATE
* FOR EDGE SPEEDS OF 750PS OR SLOWER
*
*
****************** RLC MODELS ********************
*
*********
*SRC=HM7M;HM7M;Connectors;Open Pin;2mm HM 7, Median Value
*SYM=ZPSLM
.SUBCKT HM7M   1  2   3
* AMP Open Pin Field 2mm HM 7 Row, 65079
R1 1 4 0.007
L4 4 5 2.9NH
C5 5 3 2.0PF
L5 5 6 2.9NH
R6 6 2 0.007
.ENDS HM7M
************
*
*****************
*SRC=HM7A;HM7A;Connectors;Open Pin;2mm HM 7, Row A
*SYM=ZPSLM
.SUBCKT HM7A   1  2   3
* AMP Open Pin Field 2mm HM 7 Row, 65079
R1 1 4 0.006
L4 4 5 2.5NH
C5 5 3 1.6PF
L5 5 6 2.5NH
R6 6 2 0.006
.ENDS HM7A
************
*
*****************
*SRC=HM7B;HM7B;Connectors;Open Pin;2mm HM 7, Row B
*SYM=ZPSLM
.SUBCKT HM7B   1  2   3
* AMP Open Pin Field 2mm HM 7 Row, 65079
R1 1 4 0.006
L4 4 5 2.5NH
C5 5 3 1.8PF
L5 5 6 2.5NH
R6 6 2 0.006
.ENDS HM7B
************
*
*****************
*SRC=HM7C;HM7C;Connectors;Open Pin;2mm HM 7, Row C
*SYM=ZPSLM
.SUBCKT HM7C   1  2   3
* AMP Open Pin Field 2mm HM 7 Row, 65079
R1 1 4 0.007
L4 4 5 2.9NH
C5 5 3 2.0PF
L5 5 6 2.9NH
R6 6 2 0.007
.ENDS HM7C
************
*
*****************
*SRC=HM7D;HM7D;Connectors;Open Pin;2mm HM 7, Row D
*SYM=ZPSLM
.SUBCKT HM7D   1  2   3
* AMP Open Pin Field 2mm HM 7 Row, 65079
R1 1 4 0.008
L4 4 5 3.1NH
C5 5 3 2.4PF
L5 5 6 3.1NH
R6 6 2 0.008
.ENDS HM7D
************
*
*****************
*SRC=HM7E;HM7E;Connectors;Open Pin;2mm HM 7, Row E
*SYM=ZPSLM
.SUBCKT HM7E   1  2   3
* AMP Open Pin Field 2mm HM 7 Row, 65079
R1 1 4 0.008
L4 4 5 3.7NH
C5 5 3 2.4PF
L5 5 6 3.7NH
R6 6 2 0.008
.ENDS HM7E
************
*
********** TRANSMISSION LINE MODELS **************
*
**********
*SRC=HM7ML;HM7ML;Connectors;Open Pin;2mm HM 7, Median Value
*SYM=ZPSLM
.SUBCKT HM7ML   1  2   3
* AMP Open Pin Field 2mm HM 7 Row, 65079
R1 1 4 0.014
T4 4 3 2 3 Z0=53 TD=107PS
.ENDS HM7ML
*************
*
******************
*SRC=HM7AL;HM7AL;Connectors;Open Pin;2mm HM 7, Row A
*SYM=ZPSLM
.SUBCKT HM7AL   1  2   3
* AMP Open Pin Field 2mm HM 7 Row, 65079
R1 1 4 0.012
T4 4 3 2 3 Z0=55 TD=85PS
.ENDS HM7AL
*************
*
******************
*SRC=HM7BL;HM7BL;Connectors;Open Pin;2mm HM 7, Row B
*SYM=ZPSLM
.SUBCKT HM7BL   1  2   3
* AMP Open Pin Field 2mm HM 7 Row, 65079
R1 1 4 0.012
T4 4 3 2 3 Z0=53 TD=95PS
.ENDS HM7BL
*************
*
*****************
*SRC=HM7CL;HM7CL;Connectors;Open Pin;2mm HM 7, Row C
*SYM=ZPSLM
.SUBCKT HM7CL   1  2   3
* AMP Open Pin Field 2mm HM 7 Row, 65079
R1 1 4 0.013
T4 4 3 2 3 Z0=54 TD=105PS
.ENDS HM7CL
*************
*
*****************
*SRC=HM7DL;HM7DL;Connectors;Open Pin;2mm HM 7, Row D
*SYM=ZPSLM
.SUBCKT HM7DL   1  2   3
* AMP Open Pin Field 2mm HM 7 Row, 65079
R1 1 4 0.015
T4 4 3 2 3 Z0=50 TD=120PS
.ENDS HM7DL
*************
*
*****************
*SRC=HM7EL;HM7EL;Connectors;Open Pin;2mm HM 7, Row E
*SYM=ZPSLM
.SUBCKT HM7EL   1  2   3
* AMP Open Pin Field 2mm HM 7 Row, 65079
R1 1 4 0.016
T4 4 3 2 3 Z0=55 TD=130PS
.ENDS HM7EL
*************
*
*****************************************************
*                       *   AMP Connector Catalog No.
*    2mm HM 5 ROW       *           65079
*                       *
*************************
*  rev 3/1/94
*
* THE FOLLOWING RLC MODELS ARE APPROPRIATE
* FOR EDGE SPEEDS OF 750PS OR SLOWER
*
*
****************** RLC MODELS ********************
*
********
*SRC=HM5M;HM5M;Connectors;Open Pin;2mm HM 5, Median Value
*SYM=ZPSLM
.SUBCKT HM5M   1  2   3
* AMP Open Pin Field 2mm HM 5 Row, 65079
R1 1 4 0.007
L4 4 5 3.0NH
C5 5 3 1.9PF
L5 5 6 3.0NH
R6 6 2 0.007
.ENDS HM5M
***********
*
****************
*SRC=HM5A;HM5A;Connectors;Open Pin;2mm HM 5, Row A
*SYM=ZPSLM
.SUBCKT HM5A   1  2   3
* AMP Open Pin Field 2mm HM 5 Row, 65079
R1 1 4 0.006
L4 4 5 2.7NH
C5 5 3 1.4PF
L5 5 6 2.7NH
R6 6 2 0.006
.ENDS HM5A
***********
*
****************
*SRC=HM5B;HM5B;Connectors;Open Pin;2mm HM 5, Row B
*SYM=ZPSLM
.SUBCKT HM5B   1  2   3
* AMP Open Pin Field 2mm HM 5 Row, 65079
R1 1 4 0.006
L4 4 5 2.5NH
C5 5 3 1.7PF
L5 5 6 2.5NH
R6 6 2 0.006
.ENDS HM5B
***********
*
****************
*SRC=HM5C;HM5C;Connectors;Open Pin;2mm HM 5, Row C
*SYM=ZPSLM
.SUBCKT HM5C   1  2   3
* AMP Open Pin Field 2mm HM 5 Row, 65079
R1 1 4 0.007
L4 4 5 2.9NH
C5 5 3 2.0PF
L5 5 6 2.9NH
R6 6 2 0.007
.ENDS HM5C
***********
*
****************
*SRC=HM5D;HM5D;Connectors;Open Pin;2mm HM 5, Row D
*SYM=ZPSLM
.SUBCKT HM5D   1  2   3
* AMP Open Pin Field 2mm HM 5 Row, 65079
R1 1 4 0.008
L4 4 5 3.1NH
C5 5 3 2.3PF
L5 5 6 3.1NH
R6 6 2 0.008
.ENDS HM5D
***********
*
****************
*SRC=HM5E;HM5E;Connectors;Open Pin;2mm HM 5, Row E
*SYM=ZPSLM
.SUBCKT HM5E   1  2   3
* AMP Open Pin Field 2mm HM 5 Row, 65079
R1 1 4 0.008
L4 4 5 4.0NH
C5 5 3 2.1PF
L5 5 6 4.0NH
R6 6 2 0.008
.ENDS HM5E
***********
*
********** TRANSMISSION LINE MODELS **************
*
*********
*SRC=HM5ML;HM5ML;Connectors;Open Pin;2mm HM 5, Median Value
*SYM=ZPSLM
.SUBCKT HM5ML   1  2   3
* AMP Open Pin Field 2mm HM 5 Row, 65079
R1 1 4 0.014
T4 4 3 2 3 Z0=56 TD=104PS
.ENDS HM5ML
************
*
*****************
*SRC=HM5AL;HM5AL;Connectors;Open Pin;2mm HM 5, Row A
*SYM=ZPSLM
.SUBCKT HM5AL   1  2   3
* AMP Open Pin Field 2mm HM 5 Row, 65079
R1 1 4 0.012
T4 4 3 2 3 Z0=62 TD=85PS
.ENDS HM5AL
************
*
*****************
*SRC=HM5BL;HM5BL;Connectors;Open Pin;2mm HM 5, Row B
*SYM=ZPSLM
.SUBCKT HM5BL   1  2   3
* AMP Open Pin Field 2mm HM 5 Row, 65079
R1 1 4 0.012
T4 4 3 2 3 Z0=54 TD=90PS
.ENDS HM5BL
************
*
*****************
*SRC=HM5CL;HM5CL;Connectors;Open Pin;2mm HM 5, Row C
*SYM=ZPSLM
.SUBCKT HM5CL   1  2   3
* AMP Open Pin Field 2mm HM 5 Row, 65079
R1 1 4 0.013
T4 4 3 2 3 Z0=54 TD=100PS
.ENDS HM5CL
************
*
*****************
*SRC=HM5DL;HM5DL;Connectors;Open Pin;2mm HM 5, Row D
*SYM=ZPSLM
.SUBCKT HM5DL   1  2   3
* AMP Open Pin Field 2mm HM 5 Row, 65079
R1 1 4 0.015
T4 4 3 2 3 Z0=52 TD=115PS
.ENDS HM5DL
************
*
*****************
*SRC=HM5EL;HM5EL;Connectors;Open Pin;2mm HM 5, Row E
*SYM=ZPSLM
.SUBCKT HM5EL   1  2   3
* AMP Open Pin Field 2mm HM 5 Row, 65079
R1 1 4 0.016
T4 4 3 2 3 Z0=61 TD=130PS
.ENDS HM5EL
************
*
*****************************************************
*                       *   AMP Connector Catalog No.
*     HDI 4 ROW RA      *           82618
*                       *
*************************
*  rev 3/1/94
*
* THE FOLLOWING RLC MODELS ARE APPROPRIATE
* FOR EDGE SPEEDS OF 750PS OR SLOWER
*
*
****************** RLC MODELS ********************
*
********
*SRC=HDI4M;HDI4M;Connectors;Open Pin;HDI 4, Median Value
*SYM=ZPSLM
.SUBCKT HDI4M 1  2   3
* AMP Open Pin Field HDI 4 Row RA, 82618
R1 1 4 0.003
L4 4 5 5.0NH
C5 5 3 1.7PF
L5 5 6 5.0NH
R6 6 2 0.003
.ENDS HDI4M
***********
*
****************
*SRC=HDI4A;HDI4A;Connectors;Open Pin;HDI 4, Row A
*SYM=ZPSLM
.SUBCKT HDI4A 1  2   3
* AMP Open Pin Field HDI 4 Row RA, 82618
R1 1 4 0.003
L4 4 5 3.5NH
C5 5 3 1.3PF
L5 5 6 3.5NH
R6 6 2 0.003
.ENDS HDI4A
***********
*
****************
*SRC=HDI4B;HDI4B;Connectors;Open Pin;HDI 4, Row B
*SYM=ZPSLM
.SUBCKT HDI4B 1  2   3
* AMP Open Pin Field HDI 4 Row RA, 82618
R1 1 4 0.003
L4 4 5 4.5NH
C5 5 3 1.7PF
L5 5 6 4.5NH
R6 6 2 0.003
.ENDS HDI4B
***********
*
****************
*SRC=HDI4C;HDI4C;Connectors;Open Pin;HDI 4, Row C
*SYM=ZPSLM
.SUBCKT HDI4C 1  2   3
* AMP Open Pin Field HDI 4 Row RA, 82618
R1 1 4 0.003
L4 4 5 5.5NH
C5 5 3 1.9PF
L5 5 6 5.5NH
R6 6 2 0.003
.ENDS HDI4C
***********
*
****************
*SRC=HDI4D;HDI4D;Connectors;Open Pin;HDI 4, Row D
*SYM=ZPSLM
.SUBCKT HDI4D 1  2   3
* AMP Open Pin Field HDI 4 Row RA, 82618
R1 1 4 0.004
L4 4 5 6.5NH
C5 5 3 2.0PF
L5 5 6 6.5NH
R6 6 2 0.004
.ENDS HDI4D
***********
*
********** TRANSMISSION LINE MODELS **************
*
*********
*SRC=HDI4ML;HDI4ML;Connectors;Open Pin;HDI 4, Median Value
*SYM=ZPSLM
.SUBCKT HDI4ML 1  2   3
* AMP Open Pin Field HDI 4 Row RA, 82618
R1 1 4 0.006
T4 4 3 2 3 Z0=77 TD=130PS
.ENDS HDI4ML
************
*
*****************
*SRC=HDI4AL;HDI4AL;Connectors;Open Pin;HDI 4, Row A
*SYM=ZPSLM
.SUBCKT HDI4AL 1  2   3
* AMP Open Pin Field HDI 4 Row RA, 82618
R1 1 4 0.005
T4 4 3 2 3 Z0=73 TD=100PS
.ENDS HDI4AL
************
*
*****************
*SRC=HDI4BL;HDI4BL;Connectors;Open Pin;HDI 4, Row B
*SYM=ZPSLM
.SUBCKT HDI4BL 1  2   3
* AMP Open Pin Field HDI 4 Row RA, 82618
R1 1 4 0.006
T4 4 3 2 3 Z0=73 TD=120PS
.ENDS HDI4BL
************
*
*****************
*SRC=HDI4CL;HDI4CL;Connectors;Open Pin;HDI 4, Row C
*SYM=ZPSLM
.SUBCKT HDI4CL 1  2   3
* AMP Open Pin Field HDI 4 Row RA, 82618
R1 1 4 0.007
T4 4 3 2 3 Z0=76 TD=140PS
.ENDS HDI4CL
************
*
*****************
*SRC=HDI4DL;HDI4DL;Connectors;Open Pin;HDI 4, Row D
*SYM=ZPSLM
.SUBCKT HDI4DL 1  2   3
* AMP Open Pin Field HDI 4 Row RA, 82618
R1 1 4 0.008
T4 4 3 2 3 Z0=81 TD=160PS
.ENDS HDI4DL
************
*
******************************************************
*                       *    AMP Connector Catalog No.
*    HDI 3 ROW RA       *            82618
*                       *
*************************
*   rev 3/1/94
*
* THE FOLLOWING RLC MODELS ARE APPROPRIATE
* FOR EDGE SPEEDS OF 750PS OR SLOWER
*
*
****************** RLC MODELS ********************
*
********
*SRC=HDI3M;HDI3M;Connectors;Open Pin;HDI 3, Median Value
*SYM=ZPSLM
.SUBCKT HDI3M 1  2   3
* AMP Open Pin Field HDI 3 Row RA, 82618
R1 1 4 0.005
L4 4 5 4.5NH
C5 5 3 1.6PF
L5 5 6 4.5NH
R6 6 2 0.005
.ENDS HDI3M
***********
*
****************
*SRC=HDI3A;HDI3A;Connectors;Open Pin;HDI 3, Row A
*SYM=ZPSLM
.SUBCKT HDI3A 1  2   3
* AMP Open Pin Field HDI 3 Row RA, 82618
R1 1 4 0.004
L4 4 5 3.5NH
C5 5 3 1.3PF
L5 5 6 3.5NH
R6 6 2 0.004
.ENDS HDI3A
***********
*
****************
*SRC=HDI3B;HDI3B;Connectors;Open Pin;HDI 3, Row B
*SYM=ZPSLM
.SUBCKT HDI3B 1  2   3
* AMP Open Pin Field HDI 3 Row RA, 82618
R1 1 4 0.005
L4 4 5 4.5NH
C5 5 3 1.7PF
L5 5 6 4.5NH
R6 6 2 0.005
.ENDS HDI3B
***********
*
****************
*SRC=HDI3C;HDI3C;Connectors;Open Pin;HDI 3, Row C
*SYM=ZPSLM
.SUBCKT HDI3C 1  2   3
* AMP Open Pin Field HDI 3 Row RA, 82618
R1 1 4 0.006
L4 4 5 6.0NH
C5 5 3 1.8PF
L5 5 6 6.0NH
R6 6 2 0.006
.ENDS HDI3C
***********
*
********** TRANSMISSION LINE MODELS **************
*
*********
*SRC=HDI3ML;HDI3ML;Connectors;Open Pin;HDI 3, Median Value
*SYM=ZPSLM
.SUBCKT HDI3ML 1  2   3
* AMP Open Pin Field HDI 3 Row RA, 82618
R1 1 4 0.009
T4 4 3 2 3 Z0=75 TD=125PS
.ENDS HDI3ML
************
*
*****************
*SRC=HDI3AL;HDI3AL;Connectors;Open Pin;HDI 3, Row A
*SYM=ZPSLM
.SUBCKT HDI3AL 1  2   3
* AMP Open Pin Field HDI 3 Row RA, 82618
R1 1 4 0.007
T4 4 3 2 3 Z0=73 TD=100PS
.ENDS HDI3AL
************
*
*****************
*SRC=HDI3BL;HDI3BL;Connectors;Open Pin;HDI 3, Row B
*SYM=ZPSLM
.SUBCKT HDI3BL 1  2   3
* AMP Open Pin Field HDI 3 Row RA, 82618
R1 1 4 0.009
T4 4 3 2 3 Z0=73 TD=125PS
.ENDS HDI3BL
************
*
*****************
*SRC=HDI3CL;HDI3CL;Connectors;Open Pin;HDI 3, Row C
*SYM=ZPSLM
.SUBCKT HDI3CL 1  2   3
* AMP Open Pin Field HDI 3 Row RA, 82618
R1 1 4 0.011
T4 4 3 2 3 Z0=81 TD=150PS
.ENDS HDI3CL
************
*
****************************************************
*                      *   AMP Connector Catalog No.
*     Z-PACK FB        *           65358
*                      *
************************
*  rev 3/1/94
*
* THE FOLLOWING RLC MODELS ARE APPROPRIATE
* FOR EDGE SPEEDS OF 750PS OR SLOWER
*
*
****************** RLC MODELS ********************
*
********
*SRC=FB2MM;FB2MM;Connectors;Open Pin;Z-Pack FB, Median Value
*SYM=ZPSLM
.SUBCKT FB2MM 1  2   3
* AMP Open Pin Field Z-Pack FB, 65358
R1 1 4 0.010
L4 4 5 3.2NH
C5 5 3 2.1PF
L5 5 6 3.2NH
R6 6 2 0.010
.ENDS FB2MM
***********
*
****************
*SRC=FB2MA;FB2MA;Connectors;Open Pin;Z-Pack FB, Row A
*SYM=ZPSLM
.SUBCKT FB2MA 1  2   3
* AMP Open Pin Field Z-Pack FB, 65358
R1 1 4 0.006
L4 4 5 2.5NH
C5 5 3 1.6PF
L5 5 6 2.5NH
R6 6 2 0.006
.ENDS FB2MA
***********
*
****************
*SRC=FB2MB;FB2MB;Connectors;Open Pin;Z-Pack FB, Row B
*SYM=ZPSLM
.SUBCKT FB2MB 1  2   3
* AMP Open Pin Field Z-Pack FB, 65358
R1 1 4 0.009
L4 4 5 2.8NH
C5 5 3 2.1PF
L5 5 6 2.8NH
R6 6 2 0.009
.ENDS FB2MB
***********
*
****************
*SRC=FB2MC;FB2MC;Connectors;Open Pin;Z-Pack FB, Row C
*SYM=ZPSLM
.SUBCKT FB2MC 1  2   3
* AMP Open Pin Field Z-Pack FB, 65358
R1 1 4 0.012
L4 4 5 3.3NH
C5 5 3 2.4PF
L5 5 6 3.3NH
R6 6 2 0.012
.ENDS FB2MC
***********
*
****************
*SRC=FB2MD;FB2MD;Connectors;Open Pin;Z-Pack FB, Row D
*SYM=ZPSLM
.SUBCKT FB2MD 1  2   3
* AMP Open Pin Field Z-Pack FB, 65358
R1 1 4 0.014
L4 4 5 4.4NH
C5 5 3 2.4PF
L5 5 6 4.4NH
R6 6 2 0.014
.ENDS FB2MD
***********
*
********** TRANSMISSION LINE MODELS **************
*
*********
*SRC=FB2MML;FB2MML;Connectors;Open Pin;Z-Pack FB, Median Value
*SYM=ZPSLM
.SUBCKT FB2MML 1  2   3
* AMP Open Pin Field Z-Pack FB, 65358
R1 1 4 0.020
T4 4 3 2 3 Z0=55 TD=113PS
.ENDS FB2MML
************
*
*****************
*SRC=FB2MAL;FB2MAL;Connectors;Open Pin;Z-Pack FB, Row A
*SYM=ZPSLM
.SUBCKT FB2MAL 1  2   3
* AMP Open Pin Field Z-Pack FB, 65358
R1 1 4 0.012
T4 4 3 2 3 Z0=56 TD=87PS
.ENDS FB2MAL
************
*
*****************
*SRC=FB2MBL;FB2MBL;Connectors;Open Pin;Z-Pack FB, Row B
*SYM=ZPSLM
.SUBCKT FB2MBL 1  2   3
* AMP Open Pin Field Z-Pack FB, 65358
R1 1 4 0.018
T4 4 3 2 3 Z0=51 TD=104PS
.ENDS FB2MBL
************
*
*****************
*SRC=FB2MCL;FB2MCL;Connectors;Open Pin;Z-Pack FB, Row C
*SYM=ZPSLM
.SUBCKT FB2MCL 1  2   3
* AMP Open Pin Field Z-Pack FB, 65358
R1 1 4 0.023