*
.MODEL 2PA1576Q PNP(  
+     IS=1.604E-14 
+     NF=0.9982 
+     ISE=3.351E-15 
+     NE=1.397 
+     BF=212.1 
+     IKF=0.08039 
+     VAF=37.2 
+     NR=1.006 
+     ISC=1.842E-14 
+     NC=1.2   
+     BR=7.351 
+     IKR=0.047 
+     VAR=11.42 
+     RB=1 
+     IRB=1E-06 
+     RBM=1   
+     RE=0.692 
+     RC=0.6886 
+     XTB=0 
+     EG=1.11 
+     XTI=3 
+     CJE=1.307E-11 
+     VJE=0.7282 
+     MJE=0.396 
+     TF=6.839E-10 
+     XTF=9.882 
+     VTF=5.669   
+     ITF=0.2739 
+     PTF=0 
+     CJC=6.848E-12 
+     VJC=0.364 
+     MJC=0.3835   
+     XCJC=0.6288 
+     TR=1E-32 
+     CJS=0 
+     VJS=0.75 
+     MJS=0.333 
+     FC=0.99 ) 
* 
 
*
.MODEL 2PA1576R PNP(  
+     IS=2.514E-14 
+     NF=0.9978 
+     ISE=5.697E-15 
+     NE=1.421 
+     BF=315.5   
+     IKF=0.08039 
+     VAF=40.01 
+     NR=1.001 
+     ISC=2.533E-14 
+     NC=1.25   
+     BR=9.217 
+     IKR=0.047 
+     VAR=32.02 
+     RB=1 
+     IRB=1E-06 
+     RBM=1   
+     RE=0.6308 
+     RC=0.956 
+     XTB=0 
+     EG=1.11 
+     XTI=3 
+     CJE=1.17E-11   
+     VJE=0.746 
+     MJE=0.4143 
+     TF=6.328E-10 
+     XTF=6.555 
+     VTF=2.416   
+     ITF=0.129 
+     PTF=0 
+     CJC=6.96E-12 
+     VJC=0.778 
+     MJC=0.6596   
+     XCJC=0.6288 
+     TR=1E-32 
+     CJS=0 
+     VJS=0.75 
+     MJS=0.333 
+     FC=0.79 ) 
* 
 
*
.MODEL 2PA1576S PNP(  
+     IS=2.515E-14 
+     NF=0.993 
+     ISE=3.596E-15 
+     NE=1.414 
+     BF=406.2  
+     IKF=0.08039 
+     VAF=27.54 
+     NR=0.998 
+     ISC=5.876E-15 
+     NC=1.15   
+     BR=12.22 
+     IKR=0.02471 
+     VAR=9.183 
+     RB=1 
+     IRB=1E-06 
+     RBM=1   
+     RE=0.5387 
+     RC=0.6883 
+     XTB=0 
+     EG=1.11 
+     XTI=3 
+     CJE=1.117E-11  
+     VJE=0.775 
+     MJE=0.432 
+     TF=5.807E-10 
+     XTF=4.339 
+     VTF=7.041 
+     ITF=0.1482 
+     PTF=0 
+     CJC=7.054E-12 
+     VJC=0.678 
+     MJC=0.6696   
+     XCJC=0.6288 
+     TR=1E-32 
+     CJS=0 
+     VJS=0.75 
+     MJS=0.333 
+     FC=0.8101) 
* 
 
*
.MODEL 2PA1774Q PNP(  
+     IS=1.604E-14 
+     NF=0.9982 
+     ISE=3.351E-15 
+     NE=1.397 
+     BF=212.1 
+     IKF=0.08039 
+     VAF=37.2 
+     NR=1.006 
+     ISC=1.842E-14 
+     NC=1.2   
+     BR=7.351 
+     IKR=0.047 
+     VAR=11.42 
+     RB=1 
+     IRB=1E-06 
+     RBM=1   
+     RE=0.692 
+     RC=0.6886 
+     XTB=0 
+     EG=1.11 
+     XTI=3 
+     CJE=1.307E-11 
+     VJE=0.7282 
+     MJE=0.396 
+     TF=6.839E-10 
+     XTF=9.882 
+     VTF=5.669   
+     ITF=0.2739 
+     PTF=0 
+     CJC=6.848E-12 
+     VJC=0.364 
+     MJC=0.3835   
+     XCJC=0.6288 
+     TR=1E-32 
+     CJS=0 
+     VJS=0.75 
+     MJS=0.333 
+     FC=0.99 ) 
* 
 
*
.MODEL 2PA1774R PNP(  
+     IS=2.514E-14 
+     NF=0.9978 
+     ISE=5.697E-15 
+     NE=1.421 
+     BF=315.5   
+     IKF=0.08039 
+     VAF=40.01 
+     NR=1.001 
+     ISC=2.533E-14 
+     NC=1.25   
+     BR=9.217 
+     IKR=0.047 
+     VAR=32.02 
+     RB=1 
+     IRB=1E-06 
+     RBM=1   
+     RE=0.6308 
+     RC=0.956 
+     XTB=0 
+     EG=1.11 
+     XTI=3 
+     CJE=1.17E-11   
+     VJE=0.746 
+     MJE=0.4143 
+     TF=6.328E-10 
+     XTF=6.555 
+     VTF=2.416   
+     ITF=0.129 
+     PTF=0 
+     CJC=6.96E-12 
+     VJC=0.778 
+     MJC=0.6596   
+     XCJC=0.6288 
+     TR=1E-32 
+     CJS=0 
+     VJS=0.75 
+     MJS=0.333 
+     FC=0.79 ) 
* 
 
*
.MODEL 2PA1774S PNP(  
+     IS=2.515E-14 
+     NF=0.993 
+     ISE=3.596E-15 
+     NE=1.414 
+     BF=406.2  
+     IKF=0.08039 
+     VAF=27.54 
+     NR=0.998 
+     ISC=5.876E-15 
+     NC=1.15   
+     BR=12.22 
+     IKR=0.02471 
+     VAR=9.183 
+     RB=1 
+     IRB=1E-06 
+     RBM=1   
+     RE=0.5387 
+     RC=0.6883 
+     XTB=0 
+     EG=1.11 
+     XTI=3 
+     CJE=1.117E-11  
+     VJE=0.775 
+     MJE=0.432 
+     TF=5.807E-10 
+     XTF=4.339 
+     VTF=7.041 
+     ITF=0.1482 
+     PTF=0 
+     CJC=7.054E-12 
+     VJC=0.678 
+     MJC=0.6696   
+     XCJC=0.6288 
+     TR=1E-32 
+     CJS=0 
+     VJS=0.75 
+     MJS=0.333 
+     FC=0.8101) 
* 
 
*
.SUBCKT 2PB709AR_PH 1 2 3
Q1 1 2 3 2PB709AR 
+ 1
D1 1 2 DIODE 
* 
* The diode does not reflect a  
* physical device but improves  
* only modeling in the reverse  
* mode of operation. 
*
.MODEL 2PB709AR PNP 
+ IS = 9.134E-15 
+ NF = 0.9775 
+ ISE = 5.035E-16 
+ NE = 1.4 
+ BF = 267.4 
+ IKF = 0.095 
+ VAF = 38 
+ NR = 0.9848 
+ ISC = 1.713E-15 
+ NC = 1.034 
+ BR = 17 
+ IKR = 0.0075 
+ VAR = 11.5 
+ RB = 75 
+ IRB = 0.0002144 
+ RBM = 0.108 
+ RE = 0.4 
+ RC = 0.95 
+ XTB = 0 
+ EG = 1.11 
+ XTI = 3 
+ CJE = 1.126E-11 
+ VJE = 0.7922 
+ MJE = 0.3954 
+ TF = 4.5E-10 
+ XTF = 1.5 
+ VTF = 20 
+ ITF = 0.07 
+ PTF = 0 
+ CJC = 1.031E-11 
+ VJC = 1 
+ MJC = 0.6227 
+ XCJC = 1 
+ TR = 5.1E-08 
+ CJS = 0 
+ VJS = 0.75 
+ MJS = 0.333 
+ FC = 0.78
.MODEL DIODE D 
+ IS = 4.065E-18 
+ N = 0.9309 
+ BV = 1000 
+ IBV = 0.001 
+ RS = 0.02115 
+ CJO = 0 
+ VJ = 1 
+ M = 0.5 
+ FC = 0 
+ TT = 0 
+ XTI = 2 
+ EG = 1.11 
+ XTI = 2
.ENDS 
 
*
.MODEL 2PC4081Q NPN(  
+     IS=1.533E-14 
+     NF=1.002 
+     ISE=7.932E-16 
+     NE=1.436 
+     BF=178.7   
+     IKF=0.1216 
+     VAF=69.7 
+     NR=1.004 
+     ISC=8.305E-14 
+     NC=1.207   
+     BR=8.628 
+     IKR=0.1121 
+     VAR=44.7 
+     RB=1 
+     IRB=1E-06 
+     RBM=1   
+     RE=0.361 
+     RC=1.382 
+     XTB=0 
+     EG=1.11 
+     XTI=3 
+     CJE=1.457E-11   
+     VJE=0.65 
+     MJE=0.3393 
+     TF=5.275E-10 
+     XTF=96.78 
+     VTF=2.012   
+     ITF=0.4793 
+     PTF=0 
+     CJC=3.511E-12 
+     VJC=0.4485 
+     MJC=0.3646   
+     XCJC=0.6193 
+     TR=1E-32 
+     CJS=0 
+     VJS=0.75 
+     MJS=0.333 
+     FC=0.9256 ) 
* 
 
*
.MODEL 2PC4081R NPN(  
+     IS=2.456E-14 
+     NF=0.997 
+     ISE=4.908E-15 
+     NE=1.706 
+     BF=265.4   
+     IKF=0.1357 
+     VAF=63.2 
+     NR=1.004 
+     ISC=6.272E-14 
+     NC=1.243   
+     BR=6.657 
+     IKR=0.1144 
+     VAR=25.9 
+     RB=1 
+     IRB=1E-06 
+     RBM=1   
+     RE=0.4683 
+     RC=1.31 
+     XTB=0 
+     EG=1.11 
+     XTI=3 
+     CJE=1.384E-11   
+     VJE=0.5561 
+     MJE=0.3437 
+     TF=5.275E-10 
+     XTF=127 
+     VTF=1.441   
+     ITF=0.565 
+     PTF=0 
+     CJC=4.399E-12 
+     VJC=0.2006 
+     MJC=0.3344   
+     XCJC=0.6193 
+     TR=1E-32 
+     CJS=0 
+     VJS=0.75 
+     MJS=0.333 
+     FC=0.8361 ) 
* 
 
*
.MODEL 2PC4081S NPN(  
+     IS=2.409E-14 
+     NF=0.997 
+     ISE=9.842E-16 
+     NE=1.464 
+     BF=351.8   
+     IKF=0.1371 
+     VAF=52.64 
+     NR=1.004 
+     ISC=7.455E-14 
+     NC=1.237   
+     BR=9.646 
+     IKR=0.1144 
+     VAR=364.5 
+     RB=1 
+     IRB=1E-06 
+     RBM=1   
+     RE=0.3666 
+     RC=1.31 
+     XTB=0 
+     EG=1.11 
+     XTI=3 
+     CJE=1.233E-11   
+     VJE=0.707 
+     MJE=0.3698 
+     TF=4.689E-10 
+     XTF=100 
+     VTF=2.586   
+     ITF=0.5651 
+     PTF=0 
+     CJC=3.847E-12 
+     VJC=0.35 
+     MJC=0.3739   
+     XCJC=0.6193 
+     TR=1E-32 
+     CJS=0 
+     VJS=0.75 
+     MJS=0.333 
+     FC=0.8945 ) 
* 
 
*
.MODEL 2PC4617Q NPN(  
+     IS=1.533E-14 
+     NF=1.002 
+     ISE=7.932E-16 
+     NE=1.436 
+     BF=178.7   
+     IKF=0.1216 
+     VAF=69.7 
+     NR=1.004 
+     ISC=8.305E-14 
+     NC=1.207   
+     BR=8.628 
+     IKR=0.1121 
+     VAR=44.7 
+     RB=1 
+     IRB=1E-06 
+     RBM=1   
+     RE=0.361 
+     RC=1.382 
+     XTB=0 
+     EG=1.11 
+     XTI=3 
+     CJE=1.457E-11   
+     VJE=0.65 
+     MJE=0.3393 
+     TF=5.275E-10 
+     XTF=96.78 
+     VTF=2.012   
+     ITF=0.4793 
+     PTF=0 
+     CJC=3.511E-12 
+     VJC=0.4485 
+     MJC=0.3646   
+     XCJC=0.6193 
+     TR=1E-32 
+     CJS=0 
+     VJS=0.75 
+     MJS=0.333 
+     FC=0.9256 ) 
* 
 
*
.MODEL 2PC4617R NPN(  
+     IS=2.456E-14 
+     NF=0.997 
+     ISE=4.908E-15 
+     NE=1.706 
+     BF=265.4   
+     IKF=0.1357 
+     VAF=63.2 
+     NR=1.004 
+     ISC=6.272E-14 
+     NC=1.243   
+     BR=6.657 
+     IKR=0.1144 
+     VAR=25.9 
+     RB=1 
+     IRB=1E-06 
+     RBM=1   
+     RE=0.4683 
+     RC=1.31 
+     XTB=0 
+     EG=1.11 
+     XTI=3 
+     CJE=1.384E-11   
+     VJE=0.5561 
+     MJE=0.3437 
+     TF=5.275E-10 
+     XTF=127 
+     VTF=1.441   
+     ITF=0.565 
+     PTF=0 
+     CJC=4.399E-12 
+     VJC=0.2006 
+     MJC=0.3344   
+     XCJC=0.6193 
+     TR=1E-32 
+     CJS=0 
+     VJS=0.75 
+     MJS=0.333 
+     FC=0.8361 ) 
* 
 
*
.MODEL 2PC4617S NPN(  
+     IS=2.409E-14 
+     NF=0.997 
+     ISE=9.842E-16 
+     NE=1.464 
+     BF=351.8   
+     IKF=0.1371 
+     VAF=52.64 
+     NR=1.004 
+     ISC=7.455E-14 
+     NC=1.237   
+     BR=9.646 
+     IKR=0.1144 
+     VAR=364.5 
+     RB=1 
+     IRB=1E-06 
+     RBM=1   
+     RE=0.3666 
+     RC=1.31 
+     XTB=0 
+     EG=1.11 
+     XTI=3 
+     CJE=1.233E-11   
+     VJE=0.707 
+     MJE=0.3698 
+     TF=4.689E-10 
+     XTF=100 
+     VTF=2.586   
+     ITF=0.5651 
+     PTF=0 
+     CJC=3.847E-12 
+     VJC=0.35 
+     MJC=0.3739   
+     XCJC=0.6193 
+     TR=1E-32 
+     CJS=0 
+     VJS=0.75 
+     MJS=0.333 
+     FC=0.8945 ) 
* 
 
*
.SUBCKT 2PD601AR_PH 1 2 3
Q1 1 2 3 2PD601AR 
+ 1
D1 2 1 DIODE 
* 
*The diode does not reflect a  
*physical device but improves  
*only modeling in the reverse  
*mode of operation. 
*
.MODEL 2PD601AR NPN 
+ IS = 1.217E-14 
+ NF = 0.9803 
+ ISE = 1.129E-15 
+ NE = 1.342 
+ BF = 300 
+ IKF = 0.16 
+ VAF = 130 
+ NR = 0.9758 
+ ISC = 8.952E-15 
+ NC = 1.2 
+ BR = 6.2 
+ IKR = 0.075 
+ VAR = 20 
+ RB = 10 
+ IRB = 8E-05 
+ RBM = 1 
+ RE = 0.5 
+ RC = 0.75 
+ XTB = 0 
+ EG = 1.11 
+ XTI = 3 
+ CJE = 1.362E-11 
+ VJE = 0.7287 
+ MJE = 0.36 
+ TF = 3.8E-10 
+ XTF = 1.5 
+ VTF = 15 
+ ITF = 0.085 
+ PTF = 0 
+ CJC = 5.522E-12 
+ VJC = 0.4075 
+ MJC = 0.3704 
+ XCJC = 1 
+ TR = 1E-07 
+ CJS = 0 
+ VJS = 0.75 
+ MJS = 0.333 
+ FC = 0.78
.MODEL DIODE D 
+ IS = 4E-17 
+ N = 1 
+ BV = 1000 
+ IBV = 0.001 
+ RS = 0.1 
+ CJO = 0 
+ VJ = 1 
+ M = 0.5 
+ FC = 0 
+ TT = 0 
+ XTI = 2 
+ EG = 1.11 
+ XTI = 2
.ENDS 
* 
 
*
.MODEL BC807-25W PNP(  
+     IS=1.08E-13 
+     NF=0.99 
+     ISE=2.713E-14 
+     NE=1.4 
+     BF=385.7 
+     IKF=0.3603 
+     VAF=31.29 
+     NR=0.9849 
+     ISC=5.062E-13 
+     NC=1.295 
+     BR=20.57 
+     IKR=0.054 
+     VAR=11.62 
+     RB=1 
+     IRB=1E-06 
+     RBM=0.5 
+     RE=0.1415 
+     RC=0.2623 
+     XTB=0 
+     EG=1.11 
+     XTI=3 
+     CJE=5.114E-11 
+     VJE=0.8911 
+     MJE=0.4417 
+     TF=7.359E-10 
+     XTF=1.859 
+     VTF=3.813 
+     ITF=0.4393 
+     PTF=0 
+     CJC=2.656E-11 
+     VJC=0.62 
+     MJC=0.4836 
+     XCJC=0.459 
+     TR=5E-08 
+     CJS=0 
+     VJS=0.75 
+     MJS=0.333 
+     FC=0.99) 
* 
 
*
.MODEL BC807-40W PNP(  
+     IS = 2.077E-13  
+     NF = 1.005  
+     ISE = 1.411E-14  
+     NE = 1.3  
+     BF = 449.8  
+     IKF = 0.36  
+     VAF = 29  
+     NR = 1.002  
+     ISC = 2.963E-13  
+     NC = 1.25  
+     BR = 20.92  
+     IKR = 0.104  
+     VAR = 10  
+     RB = 40  
+     IRB = 1E-05  
+     RBM = 5.3  
+     RE = 0.14  
+     RC = 0.32  
+     XTB = 0  
+     EG = 1.11  
+     XTI = 3  
+     CJE = 5E-11  
+     VJE = 0.9296  
+     MJE = 0.456  
+     TF = 7E-10  
+     XTF = 3.25  
+     VTF = 2.5  
+     ITF = 0.79  
+     PTF = 80  
+     CJC = 2.675E-11  
+     VJC = 0.8956  
+     MJC = 0.4638  
+     XCJC =  0.459  
+     TR = 3.5E-08  
+     CJS = 0  
+     VJS = 0.75  
+     MJS = 0.333  
+     FC = 0.935) 
* 
 
*
.MODEL BC807W PNP(  
+     IS=1.08E-13 
+     NF=0.99 
+     ISE=2.713E-14 
+     NE=1.4 
+     BF=385.7 
+     IKF=0.3603 
+     VAF=31.29 
+     NR=0.9849 
+     ISC=5.062E-13 
+     NC=1.295 
+     BR=20.57 
+     IKR=0.054 
+     VAR=11.62 
+     RB=1 
+     IRB=1E-06 
+     RBM=0.5 
+     RE=0.1415 
+     RC=0.2623 
+     XTB=0 
+     EG=1.11 
+     XTI=3 
+     CJE=5.114E-11 
+     VJE=0.8911 
+     MJE=0.4417 
+     TF=7.359E-10 
+     XTF=1.859 
+     VTF=3.813 
+     ITF=0.4393 
+     PTF=0 
+     CJC=2.656E-11 
+     VJC=0.62 
+     MJC=0.4836 
+     XCJC=0.459 
+     TR=5.00E-08 
+     CJS=0 
+     VJS=0.75 
+     MJS=0.333 
+     FC=0.99) 
* 
 
*
.MODEL BC808-25W PNP(  
+     IS=1.08E-13 
+     NF=0.99 
+     ISE=2.713E-14 
+     NE=1.4 
+     BF=385.7 
+     IKF=0.3603 
+     VAF=31.29 
+     NR=0.9849 
+     ISC=5.062E-13 
+     NC=1.295 
+     BR=20.57 
+     IKR=0.054 
+     VAR=11.62 
+     RB=1 
+     IRB=1E-06 
+     RBM=0.5 
+     RE=0.1415 
+     RC=0.2623 
+     XTB=0 
+     EG=1.11 
+     XTI=3 
+     CJE=5.114E-11 
+     VJE=0.8911 
+     MJE=0.4417 
+     TF=7.359E-10 
+     XTF=1.859 
+     VTF=3.813 
+     ITF=0.4393 
+     PTF=0 
+     CJC=2.656E-11 
+     VJC=0.62 
+     MJC=0.4836 
+     XCJC=0.459 
+     TR=5E-08 
+     CJS=0 
+     VJS=0.75 
+     MJS=0.333 
+     FC=0.99) 
* 
 
*
.MODEL BC808-40W PNP(  
+     IS = 2.077E-13  
+     NF = 1.005  
+     ISE = 1.411E-14  
+     NE = 1.3  
+     BF = 449.8  
+     IKF = 0.36  
+     VAF = 29  
+     NR = 1.002  
+     ISC = 2.963E-13  
+     NC = 1.25  
+     BR = 20.92  
+     IKR = 0.104  
+     VAR = 10  
+     RB = 40  
+     IRB = 1E-05  
+     RBM = 5.3  
+     RE = 0.14  
+     RC = 0.32  
+     XTB = 0  
+     EG = 1.11  
+     XTI = 3  
+     CJE = 5E-11  
+     VJE = 0.9296  
+     MJE = 0.456  
+     TF = 7E-10  
+     XTF = 3.25  
+     VTF = 2.5  
+     ITF = 0.79  
+     PTF = 80  
+     CJC = 2.675E-11  
+     VJC = 0.8956  
+     MJC = 0.4638  
+     XCJC =  0.459  
+     TR = 3.5E-08  
+     CJS = 0  
+     VJS = 0.75  
+     MJS = 0.333  
+     FC = 0.935) 
* 
 
*
.MODEL BC808W PNP(  
+     IS=1.08E-13 
+     NF=0.99 
+     ISE=2.713E-14 
+     NE=1.4 
+     BF=385.7 
+     IKF=0.3603 
+     VAF=31.29 
+     NR=0.9849 
+     ISC=5.062E-13 
+     NC=1.295 
+     BR=20.57 
+     IKR=0.054 
+     VAR=11.62 
+     RB=1 
+     IRB=1E-06 
+     RBM=0.5 
+     RE=0.1415 
+     RC=0.2623 
+     XTB=0 
+     EG=1.11 
+     XTI=3 
+     CJE=5.114E-11 
+     VJE=0.8911 
+     MJE=0.4417 
+     TF=7.359E-10 
+     XTF=1.859 
+     VTF=3.813 
+     ITF=0.4393 
+     PTF=0 
+     CJC=2.656E-11 
+     VJC=0.62 
+     MJC=0.4836 
+     XCJC=0.459 
+     TR=5E-08 
+     CJS=0 
+     VJS=0.75 
+     MJS=0.333 
+     FC=0.99) 
* 
 
*
.MODEL BC817-16W NPN(  
+    IS = 3.615E-14 
+    NF = 0.9932 
+    ISE = 2.649E-15 
+    NE = 1.65 
+    BF = 223  
+    IKF = 0.5913 
+    VAF = 157.9 
+    NR = 0.992 
+    ISC = 1.741E-14 
+    NC = 1.119  
+    BR = 25.47 
+    IKR = 0.235 
+    VAR = 25 
+    RB = 1 
+    IRB = 1000 
+    RBM = 1 
+    RE = 0.2246  
+    RC = 0.17 
+    XTB = 0 
+    EG = 1.11 
+    XTI = 3 
+    CJE = 4.202E-11 
+    VJE = 0.6357  
+    MJE = 0.344 
+    TF = 5.869E-10 
+    XTF = 220 
+    VTF = 2.846 
+    ITF = 6.136  
+    PTF = 0 
+    CJC = 1.213E-11 
+    VJC = 0.3293 
+    MJC = 0.3658 
+    XCJC = 0.455  
+    TR = 7E-11 
+    CJS = 0 
+    VJS = 0.75 
+    MJS = 0.333 
+    FC = 0.8528)  
* 
 
*
.MODEL BC817-25W NPN(  
+    IS = 9.198E-14 
+    NF = 1.003 
+    ISE = 4.468E-16 
+    NE = 1.65 
+    BF = 338.8  
+    IKF = 0.4913 
+    VAF = 107.9 
+    NR = 1.002 
+    ISC = 5.109E-15 
+    NC = 1.071  
+    BR = 29.48 
+    IKR = 0.193 
+    VAR = 25 
+    RB = 1 
+    IRB = 1000 
+    RBM = 1  
+    RE = 0.2126 
+    RC = 0.143 
+    XTB = 0 
+    EG = 1.11 
+    XTI = 3 
+    CJE = 3.825E-11  
+    VJE = 0.7004 
+    MJE = 0.364 
+    TF = 5.229E-10 
+    XTF = 219.7 
+    VTF = 3.502  
+    ITF = 7.257 
+    PTF = 0 
+    CJC = 1.27E-11 
+    VJC = 0.4431 
+    MJC = 0.3983  
+    XCJC = 0.4555 
+    TR = 7E-11 
+    CJS = 0 
+    VJS = 0.75 
+    MJS = 0.333 
+    FC = 0.905)  
* 
 
*
.MODEL BC817-40W NPN(  
+    IS = 6.286E-14 
+    NF = 0.9917 
+    ISE = 4.53E-15 
+    NE = 1.774 
+    BF = 416.3  
+    IKF = 0.4913 
+    VAF = 98.08 
+    NR = 0.9895 
+    ISC = 1.877E-13 
+    NC = 1.3  
+    BR = 24.49 
+    IKR = 0.203 
+    VAR = 25 
+    RB = 1 
+    IRB = 1000 
+    RBM = 1  
+    RE = 0.2256 
+    RC = 0.143 
+    XTB = 0 
+    EG = 1.11 
+    XTI = 3 
+    CJE = 3.568E-11  
+    VJE = 0.726 
+    MJE = 0.3721 
+    TF = 4.826E-10 
+    XTF = 120 
+    VTF = 3.654  
+    ITF = 5.104 
+    PTF = 0 
+    CJC = 1.296E-11 
+    VJC = 0.3241 
+    MJC = 0.3742  
+    XCJC = 0.455 
+    TR = 7E-11 
+    CJS = 0 
+    VJS = 0.75 
+    MJS = 0.333 
+    FC = 0.8662)  
* 
 
*
.MODEL BC817W NPN(  
+    IS = 9.198E-14 
+    NF = 1.003 
+    ISE = 4.468E-16 
+    NE = 1.65 
+    BF = 338.8  
+    IKF = 0.4913 
+    VAF = 107.9 
+    NR = 1.002 
+    ISC = 5.109E-15 
+    NC = 1.071  
+    BR = 29.48 
+    IKR = 0.193 
+    VAR = 25 
+    RB = 1 
+    IRB = 1000 
+    RBM = 1  
+    RE = 0.2126 
+    RC = 0.143 
+    XTB = 0 
+    EG = 1.11 
+    XTI = 3 
+    CJE = 3.825E-11  
+    VJE = 0.7004 
+    MJE = 0.364 
+    TF = 5.229E-10 
+    XTF = 219.7 
+    VTF = 3.502  
+    ITF = 7.257 
+    PTF = 0 
+    CJC = 1.27E-11 
+    VJC = 0.4431 
+    MJC = 0.3983  
+    XCJC = 0.4555 
+    TR = 7E-11 
+    CJS = 0 
+    VJS = 0.75 
+    MJS = 0.333 
+    FC = 0.905)  
* 
 
*
.MODEL BC846 NPN(  
+     IS = 1.822E-14  
+     NF = 0.9932  
+     ISE = 2.894E-16  
+     NE = 1.4  
+     BF = 324.4  
+     IKF = 0.109  
+     VAF = 82  
+     NR = 0.9931  
+     ISC = 9.982E-12  
+     NC = 1.763  
+     BR = 8.29  
+     IKR = 0.09  
+     VAR = 17.9  
+     RB = 10  
+     IRB = 5E-06  
+     RBM = 5  
+     RE = 0.649  
+     RC = 0.7014  
+     XTB = 0  
+     EG = 1.11  
+     XTI = 3  
+     CJE = 1.244E-11  
+     VJE = 0.7579  
+     MJE = 0.3656  
+     TF = 4.908E-10  
+     XTF = 9.51  
+     VTF = 2.927  
+     ITF = 0.3131  
+     PTF = 0  
+     CJC = 3.347E-12  
+     VJC = 0.5463  
+     MJC = 0.391  
+     XCJC = 0.6193  
+     TR = 9E-08  
+     CJS = 0  
+     VJS = 0.75  
+     MJS = 0.333  
+     FC = 0.979) 
* 
 
*
.MODEL BC846AT NPN(  
+     IS = 9.677E-15  
+     NF = 0.9922  
+     ISE = 5.44E-15  
+     NE = 2  
+     BF = 182.1  
+     IKF = 0.14  
+     VAF = 143.8  
+     NR = 0.9935  
+     ISC = 5.236E-12  
+     NC = 1.53  
+     BR = 7.004  
+     IKR = 0.06  
+     VAR = 31.15  
+     RB = 10  
+     IRB = 5E-06  
+     RBM = 4  
+     RE = 0.78  
+     RC = 0.656  
+     XTB = 0  
+     EG = 1.11  
+     XTI = 3  
+     CJE = 1.443E-11  
+     VJE = 0.733  
+     MJE = 0.3514  
+     TF = 6.04E-10  
+     XTF = 8.94  
+     VTF = 3.78  
+     ITF = 0.2711  
+     PTF = 0  
+     CJC = 3.287E-12  
+     VJC = 0.5444  
+     MJC = 0.3954  
+     XCJC = 0.693  
+     TR = 1.1E-07  
+     CJS = 0  
+     VJS = 0.75  
+     MJS = 0.333  
+     FC = 0.789)  
* 
 
*
.MODEL BC846BT NPN(  
+     IS = 1.822E-14  
+     NF = 0.9932  
+     ISE = 2.894E-16  
+     NE = 1.4  
+     BF = 324.4  
+     IKF = 0.109  
+     VAF = 82  
+     NR = 0.9931  
+     ISC = 9.982E-12  
+     NC = 1.763  
+     BR = 8.29  
+     IKR = 0.09  
+     VAR = 17.9  
+     RB = 10  
+     IRB = 5E-06  
+     RBM = 5  
+     RE = 0.649  
+     RC = 0.7014  
+     XTB = 0  
+     EG = 1.11  
+     XTI = 3  
+     CJE = 1.244E-11  
+     VJE = 0.7579  
+     MJE = 0.3656  
+     TF = 4.908E-10  
+     XTF = 9.51  
+     VTF = 2.927  
+     ITF = 0.3131  
+     PTF = 0  
+     CJC = 3.347E-12  
+     VJC = 0.5463  
+     MJC = 0.391  
+     XCJC = 0.6193  
+     TR = 9E-08  
+     CJS = 0  
+     VJS = 0.75  
+     MJS = 0.333  
+     FC = 0.979) 
* 
 
*
.MODEL BC847AT NPN(  
+     IS = 9.677E-15  
+     NF = 0.9922  
+     ISE = 5.44E-15  
+     NE = 2  
+     BF = 182.1  
+     IKF = 0.14  
+     VAF = 143.8  
+     NR = 0.9935  
+     ISC = 5.236E-12  
+     NC = 1.53  
+     BR = 7.004  
+     IKR = 0.06  
+     VAR = 31.15  
+     RB = 10  
+     IRB = 5E-06  
+     RBM = 4  
+     RE = 0.78  
+     RC = 0.656  
+     XTB = 0  
+     EG = 1.11  
+     XTI = 3  
+     CJE = 1.443E-11  
+     VJE = 0.733  
+     MJE = 0.3514  
+     TF = 6.04E-10  
+     XTF = 8.94  
+     VTF = 3.78  
+     ITF = 0.2711  
+     PTF = 0  
+     CJC = 3.287E-12  
+     VJC = 0.5444  
+     MJC = 0.3954  
+     XCJC = 0.693  
+     TR = 1.1E-07  
+     CJS = 0  
+     VJS = 0.75  
+     MJS = 0.333  
+     FC = 0.789)  
* 
 
*
.MODEL BC847BT NPN(  
+     IS = 1.822E-14  
+     NF = 0.9932  
+     ISE = 2.894E-16  
+     NE = 1.4  
+     BF = 324.4  
+     IKF = 0.109  
+     VAF = 82  
+     NR = 0.9931  
+     ISC = 9.982E-12  
+     NC = 1.763  
+     BR = 8.29  
+     IKR = 0.09  
+     VAR = 17.9  
+     RB = 10  
+     IRB = 5E-06  
+     RBM = 5  
+     RE = 0.649  
+     RC = 0.7014  
+     XTB = 0  
+     EG = 1.11  
+     XTI = 3  
+     CJE = 1.244E-11  
+     VJE = 0.7579  
+     MJE = 0.3656  
+     TF = 4.908E-10  
+     XTF = 9.51  
+     VTF = 2.927  
+     ITF = 0.3131  
+     PTF = 0  
+     CJC = 3.347E-12  
+     VJC = 0.5463  
+     MJC = 0.391  
+     XCJC = 0.6193  
+     TR = 9E-08  
+     CJS = 0  
+     VJS = 0.75  
+     MJS = 0.333  
+     FC = 0.979) 
* 
 
*
.MODEL BC847CT NPN(  
+     IS = 2.375E-14  
+     NF = 0.9925  
+     ISE = 5.16E-16  
+     NE = 1.3  
+     BF = 524.9  
+     IKF = 0.09  
+     VAF = 49.77  
+     NR = 0.9931  
+     ISC = 7.064E-12  
+     NC = 1.78  
+     BR = 10.04  
+     IKR = 0.132  
+     VAR = 16  
+     RB = 10  
+     IRB = 5E-06  
+     RBM = 5  
+     RE = 0.653  
+     RC = 0.78  
+     CJE = 1.132E-11  
+     VJE = 0.7685  
+     MJE = 0.3733  
+     TF = 4.258E-10  
+     XTF = 6.319  
+     VTF = 6.4  
+     ITF = 0.1845  
+     PTF = 0  
+     CJC = 3.379E-12  
+     VJC = 0.5444  
+     MJC = 0.3968  
+     XCJC = 0.6193  
+     TR = 9.5E-08  
+     CJS = 0  
+     VJS = 0.75  
+     MJS = 0.333  
+     XTB = 0  
+     XTI = 3  
+     EG = 1.11  
+     FC = 0.999)  
* 
 
*
.MODEL BC846AW NPN(  
+     IS = 9.677E-15  
+     NF = 0.9922  
+     ISE = 5.44E-15  
+     NE = 2  
+     BF = 182.1  
+     IKF = 0.14  
+     VAF = 143.8  
+     NR = 0.9935  
+     ISC = 5.236E-12  
+     NC = 1.53  
+     BR = 7.004  
+     IKR = 0.06  
+     VAR = 31.15  
+     RB = 10  
+     IRB = 5E-06  
+     RBM = 4  
+     RE = 0.78  
+     RC = 0.656  
+     CJE = 1.443E-11  
+     VJE = 0.733  
+     MJE = 0.3514  
+     TF = 6.04E-10  
+     XTF = 8.94  
+     VTF = 3.78  
+     ITF = 0.2711  
+     PTF = 0  
+     CJC = 3.287E-12  
+     VJC = 0.5444  
+     MJC = 0.3954  
+     XCJC = 0.693  
+     TR = 1.1E-07  
+     CJS = 0  
+     VJS = 0.75  
+     MJS = 0.333  
+     XTB = 0  
+     XTI = 3  
+     EG = 1.11  
+     FC = 0.789)  
* 
 
*
.MODEL BC846BW NPN(  
+     IS = 1.822E-14  
+     NF = 0.9932  
+     ISE = 2.894E-16  
+     NE = 1.4  
+     BF = 324.4  
+     IKF = 0.109  
+     VAF = 82  
+     NR = 0.9931  
+     ISC = 9.982E-12  
+     NC = 1.763  
+     BR = 8.29  
+     IKR = 0.09  
+     VAR = 17.9  
+     RB = 10  
+     IRB = 5E-06  
+     RBM = 5  
+     RE = 0.649  
+     RC = 0.7014  
+     CJE = 1.244E-11  
+     VJE = 0.7579  
+     MJE = 0.3656  
+     TF = 4.908E-10  
+     XTF = 9.51  
+     VTF = 2.927  
+     ITF = 0.3131  
+     PTF = 0  
+     CJC = 3.347E-12  
+     VJC = 0.5463  
+     MJC = 0.391  
+     XCJC = 0.6193  
+     TR = 9E-08  
+     CJS = 0  
+     VJS = 0.75  
+     MJS = 0.333  
+     XTB = 0  
+     XTI = 3  
+     EG = 1.11  
+     FC = 0.979) 
* 
 
*
.MODEL BC846W NPN(  
+     IS = 1.822E-14  
+     NF = 0.9932  
+     ISE = 2.894E-16  
+     NE = 1.4  
+     BF = 324.4  
+     IKF = 0.109  
+     VAF = 82  
+     NR = 0.9931  
+     ISC = 9.982E-12  
+     NC = 1.763  
+     BR = 8.29  
+     IKR = 0.09  
+     VAR = 17.9  
+     RB = 10  
+     IRB = 5E-06  
+     RBM = 5  
+     RE = 0.649  
+     RC = 0.7014  
+     CJE = 1.244E-11  
+     VJE = 0.7579  
+     MJE = 0.3656  
+     TF = 4.908E-10  
+     XTF = 9.51  
+     VTF = 2.927  
+     ITF = 0.3131  
+     PTF = 0  
+     CJC = 3.347E-12  
+     VJC = 0.5463  
+     MJC = 0.391  
+     XCJC = 0.6193  
+     TR = 9E-08  
+     CJS = 0  
+     VJS = 0.75  
+     MJS = 0.333  
+     XTB = 0  
+     XTI = 3  
+     EG = 1.11  
+     FC = 0.979) 
* 
 
*
.MODEL BC847AW NPN(  
+     IS = 9.677E-15  
+     NF = 0.9922  
+     ISE = 5.44E-15  
+     NE = 2  
+     BF = 182.1  
+     IKF = 0.14  
+     VAF = 143.8  
+     NR = 0.9935  
+     ISC = 5.236E-12  
+     NC = 1.53  
+     BR = 7.004  
+     IKR = 0.06  
+     VAR = 31.15  
+     RB = 10  
+     IRB = 5E-06  
+     RBM = 4  
+     RE = 0.78  
+     RC = 0.656  
+     CJE = 1.443E-11  
+     VJE = 0.733  
+     MJE = 0.3514  
+     TF = 6.04E-10  
+     XTF = 8.94  
+     VTF = 3.78  
+     ITF = 0.2711  
+     PTF = 0  
+     CJC = 3.287E-12  
+     VJC = 0.5444  
+     MJC = 0.3954  
+     XCJC = 0.693  
+     TR = 1.1E-07  
+     CJS = 0  
+     VJS = 0.75  
+     MJS = 0.333  
+     XTB = 0  
+     XTI = 3  
+     EG = 1.11  
+     FC = 0.789)  
* 
 
*
.MODEL BC847BW NPN(  
+     IS = 1.822E-14  
+     NF = 0.9932  
+     ISE = 2.894E-16  
+     NE = 1.4  
+     BF = 324.4  
+     IKF = 0.109  
+     VAF = 82  
+     NR = 0.9931  
+     ISC = 9.982E-12  
+     NC = 1.763  
+     BR = 8.29  
+     IKR = 0.09  
+     VAR = 17.9  
+     RB = 10  
+     IRB = 5E-06  
+     RBM = 5  
+     RE = 0.649  
+     RC = 0.7014  
+     CJE = 1.244E-11  
+     VJE = 0.7579  
+     MJE = 0.3656  
+     TF = 4.908E-10  
+     XTF = 9.51  
+     VTF = 2.927  
+     ITF = 0.3131  
+     PTF = 0  
+     CJC = 3.347E-12  
+     VJC = 0.5463  
+     MJC = 0.391  
+     XCJC = 0.6193  
+     TR = 9E-08  
+     CJS = 0  
+     VJS = 0.75  
+     MJS = 0.333  
+     XTB = 0  
+     XTI = 3  
+     EG = 1.11  
+     FC = 0.979) 
* 
 
*
.MODEL BC847CW NPN(  
+     IS = 2.375E-14  
+     NF = 0.9925  
+     ISE = 5.16E-16  
+     NE = 1.3  
+     BF = 524.9  
+     IKF = 0.09  
+     VAF = 49.77  
+     NR = 0.9931  
+     ISC = 7.064E-12  
+     NC = 1.78  
+     BR = 10.04  
+     IKR = 0.132  
+     VAR = 16  
+     RB = 10  
+     IRB = 5E-06  
+     RBM = 5  
+     RE = 0.653  
+     RC = 0.78  
+     CJE = 1.132E-11  
+     VJE = 0.7685  
+     MJE = 0.3733  
+     TF = 4.258E-10  
+     XTF = 6.319  
+     VTF = 6.4  
+     ITF = 0.1845  
+     PTF = 0  
+     CJC = 3.379E-12  
+     VJC = 0.5444  
+     MJC = 0.3968  
+     XCJC = 0.6193  
+     TR = 9.5E-08  
+     CJS = 0  
+     VJS = 0.75  
+     MJS = 0.333  
+     XTB = 0  
+     XTI = 3  
+     EG = 1.11  
+     FC = 0.999)  
* 
 
*
.MODEL BC847W NPN(  
+     IS = 1.822E-14  
+     NF = 0.9932  
+     ISE = 2.894E-16  
+     NE = 1.4  
+     BF = 324.4  
+     IKF = 0.109  
+     VAF = 82  
+     NR = 0.9931  
+     ISC = 9.982E-12  
+     NC = 1.763  
+     BR = 8.29  
+     IKR = 0.09  
+     VAR = 17.9  
+     RB = 10  
+     IRB = 5E-06  
+     RBM = 5  
+     RE = 0.649  
+     RC = 0.7014  
+     CJE = 1.244E-11  
+     VJE = 0.7579  
+     MJE = 0.3656  
+     TF = 4.908E-10  
+     XTF = 9.51  
+     VTF = 2.927  
+     ITF = 0.3131  
+     PTF = 0  
+     CJC = 3.347E-12  
+     VJC = 0.5463  
+     MJC = 0.391  
+     XCJC = 0.6193  
+     TR = 9E-08  
+     CJS = 0  
+     VJS = 0.75  
+     MJS = 0.333  
+     XTB = 0  
+     XTI = 3  
+     EG = 1.11  
+     FC = 0.979) 
* 
 
*
.MODEL BC848AW NPN(  
+     IS = 9.677E-15  
+     NF = 0.9922  
+     ISE = 5.44E-15  
+     NE = 2  
+     BF = 182.1  
+     IKF = 0.14  
+     VAF = 143.8  
+     NR = 0.9935  
+     ISC = 5.236E-12  
+     NC = 1.53  
+     BR = 7.004  
+     IKR = 0.06  
+     VAR = 31.15  
+     RB = 10  
+     IRB = 5E-06  
+     RBM = 4  
+     RE = 0.78  
+     RC = 0.656  
+     CJE = 1.443E-11  
+     VJE = 0.733  
+     MJE = 0.3514  
+     TF = 6.04E-10  
+     XTF = 8.94  
+     VTF = 3.78  
+     ITF = 0.2711  
+     PTF = 0  
+     CJC = 3.287E-12  
+     VJC = 0.5444  
+     MJC = 0.3954  
+     XCJC = 0.6193  
+     TR = 1.1E-07  
+     CJS = 0  
+     VJS = 0.75  
+     MJS = 0.333  
+     XTB = 0  
+     XTI = 3  
+     EG = 1.11  
+     FC = 0.789)  
* 
 
*
.MODEL BC848CW NPN(  
+     IS = 2.375E-14  
+     NF = 0.9925  
+     ISE = 5.16E-16  
+     NE = 1.3  
+     BF = 524.9  
+     IKF = 0.09  
+     VAF = 49.77  
+     NR = 0.9931  
+     ISC = 7.064E-12  
+     NC = 1.78  
+     BR = 10.04  
+     IKR = 0.132  
+     VAR = 16  
+     RB = 10  
+     IRB = 5E-06  
+     RBM = 5  
+     RE = 0.653  
+     RC = 0.78  
+     CJE = 1.132E-11  
+     VJE = 0.7685  
+     MJE = 0.3733  
+     TF = 4.258E-10  
+     XTF = 6.319  
+     VTF = 6.4  
+     ITF = 0.1845  
+     PTF = 0  
+     CJC = 3.379E-12  
+     VJC = 0.5444  
+     MJC = 0.3968  
+     XCJC = 0.6193  
+     TR = 9.5E-08  
+     CJS = 0  
+     VJS = 0.75  
+     MJS = 0.333  
+     XTB = 0  
+     XTI = 3  
+     EG = 1.11  
+     FC = 0.999)  
* 
 
*
.MODEL BC848W NPN(  
+     IS = 1.822E-14  
+     NF = 0.9932  
+     ISE = 2.894E-16  
+     NE = 1.4  
+     BF = 324.4  
+     IKF = 0.109  
+     VAF = 82  
+     NR = 0.9931  
+     ISC = 9.982E-12  
+     NC = 1.763  
+     BR = 8.29  
+     IKR = 0.09  
+     VAR = 17.9  
+     RB = 10  
+     IRB = 5E-06  
+     RBM = 5  
+     RE = 0.649  
+     RC = 0.7014  
+     CJE = 1.244E-11  
+     VJE = 0.7579  
+     MJE = 0.3656  
+     TF = 4.908E-10  
+     XTF = 9.51  
+     VTF = 2.927  
+     ITF = 0.3131  
+     PTF = 0  
+     CJC = 3.347E-12  
+     VJC = 0.5463  
+     MJC = 0.391  
+     XCJC = 0.6193  
+     TR = 9E-08  
+     CJS = 0  
+     VJS = 0.75  
+     MJS = 0.333  
+     XTB = 0  
+     XTI = 3  
+     EG = 1.11  
+     FC = 0.979) 
* 
 
* 
* BC846S  
* 2NPN Transistors in SC-88 
* QTR1 = QTR2  NPN 
*
.MODEL BC846S NPN(  
+     IS = 1.822E-14  
+     NF = 0.9932  
+     ISE = 2.894E-16  
+     NE = 1.4  
+     BF = 324.4  
+     IKF = 0.109  
+     VAF = 82  
+     NR = 0.9931  
+     ISC = 9.982E-12  
+     NC = 1.763  
+     BR = 8.29  
+     IKR = 0.09  
+     VAR = 17.9  
+     RB = 10  
+     IRB = 5E-06  
+     RBM = 5  
+     RE = 0.649  
+     RC = 0.7014  
+     XTB = 0  
+     EG = 1.11  
+     XTI = 3  
+     CJE = 1.244E-11  
+     VJE = 0.7579  
+     MJE = 0.3656  
+     TF = 4.908E-10  
+     XTF = 9.51  
+     VTF = 2.927  