*DEVICE=D1N5259B,D
* D1N5259B D model
.MODEL 1N5259B D
+ IS=389.27E-15
+ N=1.2744
+ RS=1.0000E-6
+ IKF=.1035
+ CJO=14.208E-12
+ M=1.1798
+ VJ=9.9900
+ ISR=29.315E-12
+ BV=38.982
+ IBV=.52416
+ TT=1.7312E-6
*$

*DEVICE=BAS216,D
* BAS216 D model
.MODEL BAS216 D
+ IS=6.0289E-9
+ N=2.1283
+ RS=1.0000E-3
+ IKF=37.638E-3
+ CJO=593.63E-15
+ M=.1
+ VJ=.68774
+ ISR=2.0646E-9
+ NR=4.9950
+ BV=113.60
+ IBV=10
+ TT=4.5000E-9
*$

*DEVICE=BAS221,D
* BAS221 D model
.MODEL BAS221 D
+ IS=10.010E-21
+ N=4.995
+ RS=1.0000E-3
+ IKF=1.8660E-186
+ CJO=598.00e-15
+ M=.3333
+ VJ=.75
+ ISR=1.3340E-9
+ NR=2.100
+ BV=330.09
+ IBV=2.7225E-3
+ TT=52.960E-9
*$

*DEVICE=BAS321,D
* BAS321 D model
.MODEL BAS321 D
+ IS=3.7106E-9
+ N=1.9403
+ RS=.41967
+ IKF=62.731E-3
+ CJO=412.54E-12
+ M=.1
+ VJ=2.2836
+ ISR=7.2305E-9
+ BV=319.86
+ IBV=5.1728E-6
+ TT=37.510E-9
*$

*DEVICE=BAS45A,D
* BAS45A D model
.MODEL BAS45A D
+ IS=7.0000E-9
+ N=2.2707
+ RS=1.0000E-3
+ IKF=22.121
+ CJO=2.9332E-12
+ M=.24677
+ VJ=.3905
+ ISR=10.010E-21
+ NR=4.9950
+ BV=225.36
+ IBV=10
+ TT=1.7500E-6
*$

*DEVICE=BAS56,D
* BAS56 D model
.MODEL BAS56 D
+ IS=10.825E-9
+ N=1.9301
+ RS=.49924
+ IKF=1.4135
+ CJO=994.44E-15
+ M=.10001
+ VJ=.69196
+ ISR=1.0704E-9
+ BV=113.15
+ IBV=15.676E-3
+ TT=5.7708E-9
*$

*DEVICE=BAV23,D
* BAV23 D model
.MODEL BAV23 D
+ IS=3.7106E-9
+ N=1.9403
+ RS=.41967
+ IKF=62.731E-3
+ CJO=794.74E-15
+ M=.10536
+ VJ=.3905
+ ISR=5.8659E-9
+ BV=319.86
+ IBV=5.1728E-6
+ TT=37.510E-9
*$

*DEVICE=BZV85C3V6,D
* BZV85C3V6 D model
.MODEL BZV85C3V6 D
+ IS=4.2450E-15
+ N=1.0330
+ RS=1.0000E-3
+ IKF=12.280E-3
+ CJO=245.10E-12
+ M=.218
+ VJ=.3905
+ ISR=9.2230E-6
+ NR=4.9950
+ BV=3.4110
+ IBV=52.160E-3
+ TT=5.0000E-9
*$

*DEVICE=BZV90C30,D
* BZV90C30 D model
.MODEL BZV90C30 D
+ IS=857.99E-18
+ N=.82675
+ RS=.31465
+ IKF=13.858E-6
+ CJO=21.774E-12
+ M=.33323
+ VJ=.68651
+ ISR=43.476E-12
+ NR=2.6052
+ BV=30.139
+ IBV=.43564
+ TT=144.27E-9
*$

*DEVICE=BZX284B6V2,D
* BZX284B6V2 D model
.MODEL BZX284B6V2 D
+ IS=2.6665E-18
+ N=.82284
+ RS=.51617
+ IKF=11.760E-3
+ CJO=167.78E-12
+ M=.37745
+ VJ=.86869
+ ISR=48.886E-9
+ BV=6.3329
+ IBV=.94329
+ TT=121.76E-9
*$

*DEVICE=BZX284C7V5,D
* BZX284C7V5 D model
.MODEL BZX284C7V5 D
+ IS=110.88E-18
+ N=.92657
+ RS=.85899
+ IKF=149.75
+ CJO=86.021E-12
+ M=.32808
+ VJ=.62493
+ ISR=1.1185E-9
+ BV=7.6329
+ IBV=1.0062
+ TT=2.7411E-6
*$

*DEVICE=BZX284C8V2,D
* BZX284C8V2 D model
.MODEL BZX284C8V2 D
+ IS=2.6665E-18
+ N=.82284
+ RS=.51617
+ IKF=11.760E-3
+ CJO=75.686E-12
+ M=.32952
+ VJ=.64386
+ ISR=146.71E-12
+ BV=8.3329
+ IBV=.94329
+ TT=2.7700E-6
*$

*DEVICE=BZX79C6V8,D
* BZX79C6V8 D model
.MODEL BZX79C6V8 D
+ IS=2.4710E-9
+ N=2.0880
+ RS=1.0000E-3
+ IKF=6.5100
+ CJO=95.650E-12
+ M=.3487
+ VJ=.7022
+ ISR=10.010E-21
+ BV=6.9480
+ IBV=.8623
+ TT=140E-9
*$

*DEVICE=BZX84C2V4,D

* BZX84C2V4 D model
.MODEL BZX84C2V4 D
+ IS=2.6665E-18
+ N=.82284
+ RS=.51617
+ IKF=11.760E-3
+ CJO=243.19E-12
+ M=.28964
+ VJ=.58074
+ ISR=4.7427E-6
+ BV=2.4673
+ IBV=74.447E-3
+ TT=29.431E-9
*$

*DEVICE=BZX84C51V,D

* BZX84C51V D model
.MODEL BZX84C51V D
+ IS=2.6665E-18
+ N=.82284
+ RS=.51617
+ IKF=11.760E-3
+ CJO=14.030E-12
+ M=.33875
+ VJ=.76575
+ ISR=60.382E-12
+ BV=51.120
+ IBV=.21741
+ TT=2.3083E-6
*$

*DEVICE=BZX84C56V,D

* BZX84C56V D model
.MODEL BZX84C56V D
+ IS=2.6665E-18
+ N=.82284
+ RS=.51617
+ IKF=11.760E-3
+ CJO=12.024E-12
+ M=.34443
+ VJ=.60675
+ ISR=53.794E-12
+ BV=56.116
+ IBV=.18612
+ TT=2.3083E-6
*$

*DEVICE=BZX84C62V,D

* BZX84C62V D model
.MODEL BZX84C62V D
+ IS=110.88E-18
+ N=.92657
+ RS=.85899
+ IKF=149.75
+ CJO=11.525E-12
+ M=.35851
+ VJ=.65914
+ ISR=51.091E-12
+ BV=62.112
+ IBV=.16341
+ TT=2.2362E-6
*$

*DEVICE=BZX84C68V,D

* BZX84C68V D model
.MODEL BZX84C68V D
+ IS=2.6665E-18
+ N=.82284
+ RS=.51617
+ IKF=11.760E-3
+ CJO=11.121E-12
+ M=.34915
+ VJ=.60561
+ ISR=53.010E-12
+ BV=68.110
+ IBV=.14452
+ TT=2.6257E-6
*$

*DEVICE=PLVA2656A,D
* PLVA2656AB D model
.MODEL PLVA2656A D
+ IS=1.2302E-15
+ N=.99169
+ RS=.4793
+ IKF=49.525E-3
+ CJO=125.26E-12
+ M=.33643
+ VJ=.68657
+ ISR=32.826E-9
+ BV=5.7651
+ IBV=3.2718
+ TT=104.45E-9
*$

*DEVICE=PLVA650A,D
* PLVA650A D model
.MODEL PLVA650A D
+ IS=535.74E-18
+ N=1.0029
+ RS=.29276
+ IKF=2.5050
+ CJO=119.42E-12
+ M=.32565
+ VJ=.62169
+ ISR=216.91E-9
+ NR=4.9950
+ BV=5.1893
+ IBV=.21213
+ TT=132.15E-9
*$

*DEVICE=PMBD6050,D
* PMBD6050 D model
.MODEL PMBD6050 D
+ IS=6.0289E-9
+ N=2.1283
+ RS=1.0000E-3
+ IKF=37.638E-3
+ CJO=593.63E-15
+ M=.1
+ VJ=.68774
+ ISR=1.6725E-9
+ NR=4.9950
+ BV=139.42
+ IBV=34.486E-3
+ TT=4.5000E-9
*$

*DEVICE=PMBD7000,D
* PMBD7000 D model
.MODEL PMBD7000 D
+ IS=6.0289E-9
+ N=2.1283
+ RS=1.0000E-3
+ IKF=37.638E-3
+ CJO=593.63E-15
+ M=.1
+ VJ=.68774
+ ISR=2.0646E-9
+ NR=4.9950
+ BV=113.60
+ IBV=10
+ TT=5.7708E-9
*$

