*PHILIPS SEMICONDUCTORS        Version: 1.0 
*Filename: BF410A.PRM        Date: sep 1992 
*
.MODEL  BF410A_PH   NJF 
+             VTO = -8.8094E-001 
+            BETA = 2.01845E-003 
+          LAMBDA = 1.50475E-002 
+              RD = 3.57223E+000 
+              RS = 3.57223E+000 
+              IS = 1.05515E-013 
+            CGS  = 2.80000E-012 
+            CGD  = 4.27000E-012 
+              PB = 6.18391E-001 
+              FC = 5.00000E-001 
*Parameter with default value: FC 
 
*PHILIPS SEMICONDUCTORS        Version: 1.0 
*Filename: BF410B.PRM        Date: sep 1992 
*
.MODEL  BF410B_PH   NJF 
+             VTO = -1.9058E+000 
+            BETA = 1.54719E-003 
+          LAMBDA = 1.72995E-002 
+              RD = 3.06677E+000 
+              RS = 3.06677E+000 
+              IS = 7.02360E-014 
+            CGS  = 4.18000E-012 
+            CGD  = 2.37000E-012 
+              PB = 7.16850E-001 
+              FC = 5.00000E-001 
*Parameter with default value: FC 
 
*PHILIPS SEMICONDUCTORS        Version: 1.0 
*Filename: BF410C.PRM        Date: sep 1992 
*
.MODEL  BF410C_PH   NJF 
+             VTO = -2.3973E+000 
+            BETA = 1.31099E-003 
+          LAMBDA = 1.70958E-002 
+              RD = 3.03493E+000 
+              RS = 3.03493E+000 
+              IS = 5.66111E-014 
+            CGS  = 3.42000E-012 
+            CGD  = 2.68000E-012 
+              PB = 8.25674E-001 
+              FC = 5.00000E-001 
*Parameter with default value: FC 
 
*PHILIPS SEMICONDUCTORS        Version: 1.0 
*Filename: BF410D.PRM        Date: sep 1992 
*
.MODEL  BF410D_PH   NJF 
+             VTO = -3.1715E+000 
+            BETA = 1.22441E-003 
+          LAMBDA = 1.98434E-002 
+              RD = 2.61448E+000 
+              RS = 2.61448E+000 
+              IS = 3.88189E-014 
+            CGS  = 5.40000E-012 
+            CGD  = 4.08000E-012 
+              PB = 8.59053E-001 
+              FC = 5.00000E-001 
*Parameter with default value: FC 
 
*PHILIPS SEMICONDUCTORS        Version: 1.0 
*Filename: BF510.PRM         Date: sep 1992 
*
.MODEL  BF510_PH   NJF 
+             VTO = -8.8094E-001 
+            BETA = 2.01845E-003 
+          LAMBDA = 1.50475E-002 
+              RD = 3.57223E+000 
+              RS = 3.57223E+000 
+              IS = 1.05515E-013 
+            CGS  = 2.80000E-012 
+            CGD  = 2.27000E-012 
+              PB = 6.18391E-001 
+              FC = 5.00000E-001 
*Parameter with default value: FC 
 
*PHILIPS SEMICONDUCTORS        Version: 1.0 
*Filename: BF511.PRM         Date: sep 1992 
*
.MODEL  BF511_PH   NJF 
+             VTO = -1.9058E+000 
+            BETA = 1.54719E-003 
+          LAMBDA = 1.72995E-002 
+              RD = 3.06677E+000 
+              RS = 3.06677E+000 
+              IS = 7.02360E-014 
+            CGS  = 4.18000E-012 
+            CGD  = 2.37000E-012 
+              PB = 7.16850E-001 
+              FC = 5.00000E-001 
*Parameter with default value: FC 
 
*PHILIPS SEMICONDUCTORS        Version: 1.0 
*Filename: BF512.PRM         Date: sep 1992 
*
.MODEL  BF512_PH   NJF 
+             VTO = -2.3973E+000 
+            BETA = 1.31099E-003 
+          LAMBDA = 1.70958E-002 
+              RD = 3.03493E+000 
+              RS = 3.03493E+000 
+              IS = 5.66111E-014 
+            CGS  = 3.42000E-012 
+            CGD  = 2.68000E-012 
+              PB = 8.25674E-001 
+              FC = 5.00000E-001 
*Parameter with default value: FC 
 
*PHILIPS SEMICONDUCTORS        Version: 1.0 
*Filename: BF513.PRM         Date: sep 1992 
*
.MODEL  BF513_PH   NJF 
+             VTO = -3.1715E+000 
+            BETA = 1.22441E-003 
+          LAMBDA = 1.98434E-002 
+              RD = 2.61448E+000 
+              RS = 2.61448E+000 
+              IS = 3.88189E-014 
+            CGS  = 5.40000E-012 
+            CGD  = 4.08000E-012 
+              PB = 8.59053E-001 
+              FC = 5.00000E-001 
*Parameter with default value: FC 
 
*PHILIPS SEMICONDUCTORS        Version: 1.0 
*Filename: BF545A.PRM        Date: Oct 1992 
*
.MODEL  BF545A_PH   NJF 
+             VTO = -1.7372E+000 
+            BETA = 1.16621E-003 
+          LAMBDA = 1.77211E-002 
+              RD = 9.01678E+000 
+              RS = 9.01678E+000 
+              IS = 2.91797E-016 
+            CGS  = 2.20000E-012 
+            CGD  = 2.20000E-012 
+              PB = 7.80988E-001 
+              FC = 5.00000E-001 
*Parameter with default value: FC 
 
*PHILIPS SEMICONDUCTORS        Version: 1.0 
*Filename: BF545B.PRM        Date: Oct 1992 
*
.MODEL  BF545B_PH   NJF 
+             VTO = -2.3085E+000 
+            BETA = 1.09045E-003 
+          LAMBDA = 2.31754E-002 
+              RD = 7.77648E+000 
+              RS = 7.77648E+000 
+              IS = 2.59121E-016 
+            CGS  = 2.00000E-012 
+            CGD  = 2.20000E-012 
+              PB = 9.91494E-001 
+              FC = 5.00000E-001 
*Parameter with default value: FC 
 
*PHILIPS SEMICONDUCTORS        Version: 1.0 
*Filename: BF545C.PRM        Date: Oct 1992 
*
.MODEL  BF545C_PH   NJF 
+             VTO = -5.0014E+000 
+            BETA = 5.43157E-004 
+          LAMBDA = 2.71505E-002 
+              RD = 1.20869E+001 
+              RS = 1.20869E+001 
+              IS = 3.64346E-016 
+            CGS  = 2.00000E-012 
+            CGD  = 2.00000E-012 
+              PB = 1.24659E+000 
+              FC = 5.00000E-001 
*Parameter with default value: FC 
 
*PHILIPS SEMICONDUCTORS        Version 1.0 
*Filename: BF556A.PRM       Date: Jan 1993 
*
.MODEL  BF556A_PH   NJF 
+             VTO = -2.1333E+000 
+            BETA = 1.06491E-003 
+          LAMBDA = 1.68673E-002 
+              RD = 1.41231E+001 
+              RS = 1.41231E+001 
+              IS = 3.50865E-016 
+            CGS  = 2.10000E-012 
+            CGD  = 2.30000E-012 
+              PB = 7.73895E-001 
+              FC = 5.00000E-001 
*Parameter with default value: FC 
 
*PHILIPS SEMICONDUCTORS        Version: 1.0 
*Filename: BF556B.PRM        Date: Jan 1993 
*
.MODEL  BF556B_PH   NJF 
+             VTO = -2.3085E+000 
+            BETA = 1.09045E-003 
+          LAMBDA = 2.31754E-002 
+              RD = 7.77648E+000 
+              RS = 7.77648E+000 
+              IS = 2.59121E-016 
+            CGS  = 2.00000E-012 
+            CGD  = 2.20000E-012 
+              PB = 9.91494E-001 
+              FC = 5.00000E-001 
*Parameter with default value: FC 
 
* BF861A NJF model 
.MODEL BF861A_PH NJF 
+ VTO=-.5111 
+ BETA=15.19E-3 
+ LAMBDA=35.93E-3 
+ IS=410.2E-18 
+ ALPHA=1.000E-6 
+ VK=1 
+ RD=4.164 
+ RS=4.164 
+ CGD=6.299E-12 
+ CGS=6.299E-12 
+ PB=.6917 
+ KF=21.54E-18 
+ AF=.7958 
+ BETATCE=-.5 
+ VTOTC=-2.500E-3 
*$ 
 
* BF861B NJF model 
.MODEL BF861B_PH NJF 
+ VTO=-.6391 
+ BETA=13.93E-3 
+ LAMBDA=47.02E-3 
+ IS=376.9E-18 
+ ALPHA=1.000E-6 
+ VK=1 
+ RD=3.577 
+ RS=3.577 
+ CGD=6.025E-12 
+ CGS=6.025E-12 
+ PB=.7072 
+ KF=20.35E-18 
+ AF=.7958 
+ BETATCE=-.5 
+ VTOTC=-2.500E-3 
*$ 
 
* BF861C NJF model 
.MODEL BF861C_PH NJF 
+ VTO=-1.145 
+ BETA=15.22E-3 
+ LAMBDA=44.94E-3 
+ IS=415.7E-18 
+ ALPHA=1.000E-6 
+ VK=1 
+ RD=15.20 
+ RS=15.20 
+ CGD=6.581E-12 
+ CGS=6.581E-12 
+ PB=.7395 
+ KF=11.22E-18 
+ AF=.7958 
+ BETATCE=-.5 
+ VTOTC=-2.500E-3 
*$ 
 
*   BF901 SPICE MODEL MARCH 1996 PHILIPS SEMICONDUCTORS 
*   ENVELOPE    SOT143  
*   1.: SOURCE;  2.: DRAIN;  3.: GATE 2;  4.: GATE 1;
.SUBCKT BF901_PH 1 2 3 4
L10          1 10   0.12N
L20          2 20   0.12N
L30          3 30   0.12N
L40          4 40   0.12N
L11         10 11   1.20N
L21         20 21   1.20N
L31         30 31   1.20N
L41         40 41   1.20N
C13         10 30   0.085P
C14         10 40   0.085P
C21         10 20   0.017P
C23         20 30   0.085P
C24         20 40   0.005P
D11         42 11   ZENER
D12         42 41   ZENER
D21         32 11   ZENER
D22         32 31   ZENER
RS          10 12   100
MOS1        61 41 11 12 GATE1 L=1.1E-6 W=1150E-6
MOS2        21 31 61 12 GATE2 L=2.0E-6 W=1150E-6
.MODEL  ZENER  D  BV=10 CJO=1.2E-12  RS=10
.MODEL  GATE1 
+  NMOS LEVEL=3 UO=600  VTO=0.6545 NFS=300E9 TOX=30.17E-9 
+  NSUB=3E15 VMAX=140E3 RS=2.0 RD=2.0 XJ=200E-9 THETA=0.11 
+  ETA=0.0877 KAPPA=1.474 LD=0.1E-6 
+  CGSO=0.3E-9 CGDO=0.3E-9 CBD=0.5E-12 CBS=0.5E-12
.MODEL  GATE2  
+  NMOS LEVEL=3 UO=600  VTO=0.6545 NFS=300E9 TOX=30.17E-9 
+  NSUB=3E15  VMAX=100E3 RS=2.0 RD=2.0 XJ=200E-9 THETA=0.11 
+  ETA=0.06  KAPPA=2 LD=0.1E-6 
+  CGSO=0.3E-9 CGDO=0.3E-9 CBD=0.5E-12 CBS=0.5E-12
.ENDS BF901_PH 
 
*   BF904 SPICE MODEL OCTOBER 1993 PHILIPS SEMICONDUCTORS 
*   ENVELOPE    SOT143  
*   1.: SOURCE;  2.: DRAIN;  3.: GATE 2;  4.: GATE 1;
.SUBCKT BF904_PH 1 2 3 4
L10          1 10   0.12N
L20          2 20   0.12N
L30          3 30   0.12N
L40          4 40   0.12N
L11         10 11   1.20N
L21         20 21   1.20N
L31         30 31   1.20N
L41         40 41   1.20N
C13         10 30   0.085P
C14         10 40   0.085P
C21         10 20   0.017P
C23         20 30   0.085P
C24         20 40   0.005P
D11         11 41   ZENER
D22         11 31   ZENER
RSUB        10 12   10
MOS1A       61 41 11 12 GATE1 L=1.1E-6 W=1150E-6
MOS2A       21 31 61 12 GATE2 L=2.0E-6 W=1150E-6
MOS1B       71 41 11 12 GATE3 L=1.1E-6 W=   6E-6
MOS2B       41 31 71 12 GATE4 L=4.0E-6 W=   6E-6
.MODEL  ZENER 
+  D  BV=10 CJO=0.6E-12  RS=10
.MODEL  GATE1 
+  NMOS LEVEL=3 UO=600  VTO=+0.700 NFS=300E9 TOX=42E-9 
+  NSUB=3E15 VMAX=140E3 RS=2.0 RD=2.0 XJ=200E-9 THETA=0.11 
+  ETA=0.06 KAPPA=2 LD=0.1E-6 
+  CGSO=0.3E-9 CGDO=0.3E-9 CBD=0.5E-12 CBS=0.5E-12
.MODEL  GATE2 
+  NMOS LEVEL=3 UO=600  VTO=+0.700 NFS=300E9 TOX=42E-9 
+  NSUB=3E15  VMAX=100E3 RS=2.0 RD=2.0 XJ=200E-9 THETA=0.11 
+  ETA=0.06  KAPPA=2 LD=0.1E-6 
+  CGSO=0.3E-9 CGDO=0.3E-9 CBD=1.5E-12 CBS=0.5E-12
.MODEL  GATE3 
+  NMOS LEVEL=3 UO=600  VTO=+0.700 NFS=300E9 TOX=42E-9 
+  NSUB=3E15 VMAX=140E3 RS=400 RD=400 XJ=200E-9 THETA=0.11 
+  ETA=0.06 KAPPA=2 LD=0.1E-6 
+  CGSO=0.3E-9 CGDO=0.3E-9 CBD=0.1E-12 CBS=0.1E-12
.MODEL  GATE4 
+  NMOS LEVEL=3 UO=600  VTO=+0.700 NFS=300E9 TOX=42E-9 
+  NSUB=3E15  VMAX=100E3 RS=400 RD=400 XJ=200E-9 THETA=0.11 
+  ETA=0.06  KAPPA=2 LD=0.1E-6 
+  CGSO=0.3E-9 CGDO=0.3E-9 CBD=0.1E-12 CBS=0.1E-12
.ENDS BF904_PH 
 
*   BF904R SPICE MODEL OCTOBER 1993 PHILIPS SEMICONDUCTORS 
*   ENVELOPE    SOT143R  
*   1.: SOURCE;  2.: DRAIN;  3.: GATE 2;  4.: GATE 1;
.SUBCKT BF904R_PH 1 2 3 4
L10          1 10   0.12N
L20          2 20   0.12N
L30          3 30   0.12N
L40          4 40   0.12N
L11         10 11   1.20N
L21         20 21   1.20N
L31         30 31   1.20N
L41         40 41   1.20N
C13         10 30   0.085P
C14         10 40   0.085P
C21         10 20   0.017P
C23         20 30   0.085P
C24         20 40   0.005P
D11         11 41   ZENER
D22         11 31   ZENER
RSUB        10 12   10
MOS1A       61 41 11 12 GATE1 L=1.1E-6 W=1150E-6
MOS2A       21 31 61 12 GATE2 L=2.0E-6 W=1150E-6
MOS1B       71 41 11 12 GATE3 L=1.1E-6 W=   6E-6
MOS2B       41 31 71 12 GATE4 L=4.0E-6 W=   6E-6
.MODEL  ZENER 
+  D  BV=10 CJO=0.6E-12  RS=10
.MODEL  GATE1 
+  NMOS LEVEL=3 UO=600  VTO=+0.700 NFS=300E9 TOX=42E-9 
+  NSUB=3E15 VMAX=140E3 RS=2.0 RD=2.0 XJ=200E-9 THETA=0.11 
+  ETA=0.06 KAPPA=2 LD=0.1E-6 
+  CGSO=0.3E-9 CGDO=0.3E-9 CBD=0.5E-12 CBS=0.5E-12
.MODEL  GATE2 
+  NMOS LEVEL=3 UO=600  VTO=+0.700 NFS=300E9 TOX=42E-9 
+  NSUB=3E15  VMAX=100E3 RS=2.0 RD=2.0 XJ=200E-9 THETA=0.11 
+  ETA=0.06  KAPPA=2 LD=0.1E-6 
+  CGSO=0.3E-9 CGDO=0.3E-9 CBD=1.5E-12 CBS=0.5E-12
.MODEL  GATE3 
+  NMOS LEVEL=3 UO=600  VTO=+0.700 NFS=300E9 TOX=42E-9 
+  NSUB=3E15 VMAX=140E3 RS=400 RD=400 XJ=200E-9 THETA=0.11 
+  ETA=0.06 KAPPA=2 LD=0.1E-6 
+  CGSO=0.3E-9 CGDO=0.3E-9 CBD=0.1E-12 CBS=0.1E-12
.MODEL  GATE4 
+  NMOS LEVEL=3 UO=600  VTO=+0.700 NFS=300E9 TOX=42E-9 
+  NSUB=3E15  VMAX=100E3 RS=400 RD=400 XJ=200E-9 THETA=0.11 
+  ETA=0.06  KAPPA=2 LD=0.1E-6 
+  CGSO=0.3E-9 CGDO=0.3E-9 CBD=0.1E-12 CBS=0.1E-12
.ENDS BF904R_PH 
 
*   BF904WR SPICE MODEL OCTOBER 1993 PHILIPS SEMICONDUCTORS 
*   ENVELOPE    SOT343R  
*   1.: SOURCE;  2.: DRAIN;  3.: GATE 2;  4.: GATE 1;
.SUBCKT BF904WR_PH 1 2 3 4
L10          1 10   0.10N
L20          2 20   0.34N
L30          3 30   0.34N
L40          4 40   0.34N
L11         10 11   1.10N
L21         20 21   1.10N
L31         30 31   1.10N
L41         40 41   1.10N
C13         10 30   0.060P
C14         10 40   0.060P
C21         10 20   0.050P
C23         20 30   0.070P
C24         20 40   0.005P
D11         11 41   ZENER
D22         11 31   ZENER
RSUB        10 12   10
MOS1A       61 41 11 12 GATE1 L=1.1E-6 W=1150E-6
MOS2A       21 31 61 12 GATE2 L=2.0E-6 W=1150E-6
MOS1B       71 41 11 12 GATE3 L=1.1E-6 W=   6E-6
MOS2B       41 31 71 12 GATE4 L=4.0E-6 W=   6E-6
.MODEL  ZENER 
+  D  BV=10 CJO=0.6E-12  RS=10
.MODEL  GATE1 
+  NMOS LEVEL=3 UO=600  VTO=+0.700 NFS=300E9 TOX=42E-9 
+  NSUB=3E15 VMAX=140E3 RS=2.0 RD=2.0 XJ=200E-9 THETA=0.11 
+  ETA=0.06 KAPPA=2 LD=0.1E-6 
+  CGSO=0.3E-9 CGDO=0.3E-9 CBD=0.5E-12 CBS=0.5E-12
.MODEL  GATE2 
+  NMOS LEVEL=3 UO=600  VTO=+0.700 NFS=300E9 TOX=42E-9 
+  NSUB=3E15  VMAX=100E3 RS=2.0 RD=2.0 XJ=200E-9 THETA=0.11 
+  ETA=0.06  KAPPA=2 LD=0.1E-6 
+  CGSO=0.3E-9 CGDO=0.3E-9 CBD=1.5E-12 CBS=0.5E-12
.MODEL  GATE3 
+  NMOS LEVEL=3 UO=600  VTO=+0.700 NFS=300E9 TOX=42E-9 
+  NSUB=3E15 VMAX=140E3 RS=400 RD=400 XJ=200E-9 THETA=0.11 
+  ETA=0.06 KAPPA=2 LD=0.1E-6 
+  CGSO=0.3E-9 CGDO=0.3E-9 CBD=0.1E-12 CBS=0.1E-12
.MODEL  GATE4 
+  NMOS LEVEL=3 UO=600  VTO=+0.700 NFS=300E9 TOX=42E-9 
+  NSUB=3E15  VMAX=100E3 RS=400 RD=400 XJ=200E-9 THETA=0.11 
+  ETA=0.06  KAPPA=2 LD=0.1E-6 
+  CGSO=0.3E-9 CGDO=0.3E-9 CBD=0.1E-12 CBS=0.1E-12
.ENDS BF904WR_PH 
 
*   BF908 SPICE MODEL OCTOBER 1993 PHILIPS SEMICONDUCTORS 
*   ENVELOPE    SOT143  
*   1.: SOURCE;  2.: DRAIN;  3.: GATE 2;  4.: GATE 1;
.SUBCKT BF908_PH 1 2 3 4
L10          1 10   0.12N
L20          2 20   0.12N
L30          3 30   0.12N
L40          4 40   0.12N
L11         10 11   1.20N
L21         20 21   1.20N
L31         30 31   1.20N
L41         40 41   1.20N
C13         10 30   0.085P
C14         10 40   0.085P
C21         10 20   0.017P
C23         20 30   0.085P
C24         20 40   0.005P
D11        42 11   ZENER
D12        42 41   ZENER
D21        32 11   ZENER
D22        32 31   ZENER
RS         10 12   100
MOS1       61 41 11 12 GATE1 L=1.1E-6 W=1750E-6
MOS2       21 31 61 12 GATE2 L=2.0E-6 W=1750E-6
.MODEL  ZENER 
+  D  BV=10 CJO=1.2E-12  RS=10
.MODEL  GATE1 
+  NMOS LEVEL=3 UO=600  VTO=-0.250 NFS=300E9 TOX=33E-9 
+  NSUB=3E15 VMAX=140E3 RS=2.0 RD=2.0 XJ=200E-9 THETA=0.11 
+  ETA=0.06 KAPPA=2 LD=0.1E-6 
+  CGSO=0.3E-9 CGDO=0.3E-9 CBD=0.5E-12 CBS=0.5E-12
.MODEL  GATE2 
+  NMOS LEVEL=3 UO=600  VTO=-0.250 NFS=300E9 TOX=33E-9 
+  NSUB=3E15  VMAX=100E3 RS=2.0 RD=2.0 XJ=200E-9 THETA=0.11 
+  ETA=0.06  KAPPA=2 LD=0.1E-6 
+  CGSO=0.3E-9 CGDO=0.3E-9 CBD=0.7E-12 CBS=0.5E-12
.ENDS BF908_PH 
 
*   BF908WR SPICE MODEL OCTOBER 1993 PHILIPS SEMICONDUCTORS 
*   ENVELOPE    SOT343R  
*   1.: SOURCE;  2.: DRAIN;  3.: GATE 2;  4.: GATE 1;
.SUBCKT BF908WR_PH 1 2 3 4
L10          1 10   0.10N
L20          2 20   0.34N
L30          3 30   0.34N
L40          4 40   0.34N
L11         10 11   1.10N
L21         20 21   1.10N
L31         30 31   1.10N
L41         40 41   1.10N
C13         10 30   0.060P
C14         10 40   0.060P
C21         10 20   0.050P
C23         20 30   0.070P
C24         20 40   0.005P
D11        42 11   ZENER
D12        42 41   ZENER
D21        32 11   ZENER
D22        32 31   ZENER
RS         10 12   100
MOS1       61 41 11 12 GATE1 L=1.1E-6 W=1750E-6
MOS2       21 31 61 12 GATE2 L=2.0E-6 W=1750E-6
.MODEL  ZENER 
+  D  BV=10 CJO=1.2E-12  RS=10
.MODEL  GATE1 
+  NMOS LEVEL=3 UO=600  VTO=-0.250 NFS=300E9 TOX=33E-9 
+  NSUB=3E15 VMAX=140E3 RS=2.0 RD=2.0 XJ=200E-9 THETA=0.11 
+  ETA=0.06 KAPPA=2 LD=0.1E-6 
+  CGSO=0.3E-9 CGDO=0.3E-9 CBD=0.5E-12 CBS=0.5E-12
.MODEL  GATE2 
+  NMOS LEVEL=3 UO=600  VTO=-0.250 NFS=300E9 TOX=33E-9 
+  NSUB=3E15  VMAX=100E3 RS=2.0 RD=2.0 XJ=200E-9 THETA=0.11 
+  ETA=0.06  KAPPA=2 LD=0.1E-6 
+  CGSO=0.3E-9 CGDO=0.3E-9 CBD=0.7E-12 CBS=0.5E-12
.ENDS BF908WR_PH 
 
*   BF909 SPICE MODEL OCTOBER 1993 PHILIPS SEMICONDUCTORS 
*   ENVELOPE    SOT143  
*   1.: SOURCE;  2.: DRAIN;  3.: GATE 2;  4.: GATE 1;
.SUBCKT BF909_PH 1 2 3 4
L10          1 10   0.12N
L20          2 20   0.12N
L30          3 30   0.12N
L40          4 40   0.12N
L11         10 11   1.20N
L21         20 21   1.20N
L31         30 31   1.20N
L41         40 41   1.20N
C13         10 30   0.085P
C14         10 40   0.085P
C21         10 20   0.017P
C23         20 30   0.085P
C24         20 40   0.005P
D11         11 41   ZENER
D22         11 31   ZENER
RS          10 12   10
MOS1A       61 41 11 12 GATE1 L=1.1E-6 W=1750E-6
MOS2A       21 31 61 12 GATE2 L=2.0E-6 W=1750E-6
MOS1B       71 41 11 12 GATE3 L=1.1E-6 W=   6E-6
MOS2B       41 31 71 12 GATE4 L=4.0E-6 W=   6E-6
.MODEL  ZENER 
+  D  BV=10 CJO=0.6E-12  RS=10
.MODEL  GATE1 
+  NMOS LEVEL=3 UO=600  VTO=+0.700 NFS=300E9 TOX=33E-9 
+  NSUB=3E15 VMAX=140E3 RS=2.0 RD=2.0 XJ=200E-9 THETA=0.11 
+  ETA=0.06 KAPPA=2 LD=0.1E-6 
+  CGSO=0.3E-9 CGDO=0.3E-9 CBD=0.5E-12 CBS=0.5E-12
.MODEL  GATE2 
+  NMOS LEVEL=3 UO=600  VTO=+0.700 NFS=300E9 TOX=33E-9 
+  NSUB=3E15  VMAX=100E3 RS=2.0 RD=2.0 XJ=200E-9 THETA=0.11 
+  ETA=0.06  KAPPA=2 LD=0.1E-6 
+  CGSO=0.3E-9 CGDO=0.3E-9 CBD=1.5E-12 CBS=0.7E-12
.MODEL  GATE3 
+  NMOS LEVEL=3 UO=600  VTO=+0.700 NFS=300E9 TOX=33E-9 
+  NSUB=3E15 VMAX=140E3 RS=400 RD=400 XJ=200E-9 THETA=0.11 
+  ETA=0.06 KAPPA=2 LD=0.1E-6 
+  CGSO=0.3E-9 CGDO=0.3E-9 CBD=0.1E-12 CBS=0.1E-12
.MODEL  GATE4 
+  NMOS LEVEL=3 UO=600  VTO=+0.700 NFS=300E9 TOX=33E-9 
+  NSUB=3E15  VMAX=100E3 RS=400 RD=400 XJ=200E-9 THETA=0.11 
+  ETA=0.06  KAPPA=2 LD=0.1E-6 
+  CGSO=0.3E-9 CGDO=0.3E-9 CBD=0.1E-12 CBS=0.1E-12
.ENDS BF909_PH 
 
*   BF909R SPICE MODEL OCTOBER 1993 PHILIPS SEMICONDUCTORS 
*   ENVELOPE    SOT143R  
*   1.: SOURCE;  2.: DRAIN;  3.: GATE 2;  4.: GATE 1;
.SUBCKT BF909R_PH 1 2 3 4
L10          1 10   0.12N
L20          2 20   0.12N
L30          3 30   0.12N
L40          4 40   0.12N
L11         10 11   1.20N
L21         20 21   1.20N
L31         30 31   1.20N
L41         40 41   1.20N
C13         10 30   0.085P
C14         10 40   0.085P
C21         10 20   0.017P
C23         20 30   0.085P
C24         20 40   0.005P
D11         11 41   ZENER
D22         11 31   ZENER
RS          10 12   10
MOS1A       61 41 11 12 GATE1 L=1.1E-6 W=1750E-6
MOS2A       21 31 61 12 GATE2 L=2.0E-6 W=1750E-6
MOS1B       71 41 11 12 GATE3 L=1.1E-6 W=   6E-6
MOS2B       41 31 71 12 GATE4 L=4.0E-6 W=   6E-6
.MODEL  ZENER 
+  D  BV=10 CJO=0.6E-12  RS=10
.MODEL  GATE1 
+  NMOS LEVEL=3 UO=600  VTO=+0.700 NFS=300E9 TOX=33E-9 
+  NSUB=3E15 VMAX=140E3 RS=2.0 RD=2.0 XJ=200E-9 THETA=0.11 
+  ETA=0.06 KAPPA=2 LD=0.1E-6 
+  CGSO=0.3E-9 CGDO=0.3E-9 CBD=0.5E-12 CBS=0.5E-12
.MODEL  GATE2 
+  NMOS LEVEL=3 UO=600  VTO=+0.700 NFS=300E9 TOX=33E-9 
+  NSUB=3E15  VMAX=100E3 RS=2.0 RD=2.0 XJ=200E-9 THETA=0.11 
+  ETA=0.06  KAPPA=2 LD=0.1E-6 
+  CGSO=0.3E-9 CGDO=0.3E-9 CBD=1.5E-12 CBS=0.7E-12
.MODEL  GATE3 
+  NMOS LEVEL=3 UO=600  VTO=+0.700 NFS=300E9 TOX=33E-9 
+  NSUB=3E15 VMAX=140E3 RS=400 RD=400 XJ=200E-9 THETA=0.11 
+  ETA=0.06 KAPPA=2 LD=0.1E-6 
+  CGSO=0.3E-9 CGDO=0.3E-9 CBD=0.1E-12 CBS=0.1E-12
.MODEL  GATE4 
+  NMOS LEVEL=3 UO=600  VTO=+0.700 NFS=300E9 TOX=33E-9 
+  NSUB=3E15  VMAX=100E3 RS=400 RD=400 XJ=200E-9 THETA=0.11 
+  ETA=0.06  KAPPA=2 LD=0.1E-6 
+  CGSO=0.3E-9 CGDO=0.3E-9 CBD=0.1E-12 CBS=0.1E-12
.ENDS BF909R_PH 
 
*   BF909WR SPICE MODEL OCTOBER 1993 PHILIPS SEMICONDUCTORS 
*   ENVELOPE    SOT343R  
*   1.: SOURCE;  2.: DRAIN;  3.: GATE 2;  4.: GATE 1;
.SUBCKT BF909WR_PH 1 2 3 4
L10          1 10   0.10N
L20          2 20   0.34N
L30          3 30   0.34N
L40          4 40   0.34N
L11         10 11   1.10N
L21         20 21   1.10N
L31         30 31   1.10N
L41         40 41   1.10N
C13         10 30   0.060P
C14         10 40   0.060P
C21         10 20   0.050P
C23         20 30   0.070P
C24         20 40   0.005P
D11         11 41   ZENER
D22         11 31   ZENER
RS          10 12   10
MOS1A       61 41 11 12 GATE1 L=1.1E-6 W=1750E-6
MOS2A       21 31 61 12 GATE2 L=2.0E-6 W=1750E-6
MOS1B       71 41 11 12 GATE3 L=1.1E-6 W=   6E-6
MOS2B       41 31 71 12 GATE4 L=4.0E-6 W=   6E-6
.MODEL  ZENER 
+  D  BV=10 CJO=0.6E-12  RS=10
.MODEL  GATE1 
+  NMOS LEVEL=3 UO=600  VTO=+0.700 NFS=300E9 TOX=33E-9 
+  NSUB=3E15 VMAX=140E3 RS=2.0 RD=2.0 XJ=200E-9 THETA=0.11 
+  ETA=0.06 KAPPA=2 LD=0.1E-6 
+  CGSO=0.3E-9 CGDO=0.3E-9 CBD=0.5E-12 CBS=0.5E-12
.MODEL  GATE2 
+  NMOS LEVEL=3 UO=600  VTO=+0.700 NFS=300E9 TOX=33E-9 
+  NSUB=3E15  VMAX=100E3 RS=2.0 RD=2.0 XJ=200E-9 THETA=0.11 
+  ETA=0.06  KAPPA=2 LD=0.1E-6 
+  CGSO=0.3E-9 CGDO=0.3E-9 CBD=1.5E-12 CBS=0.7E-12
.MODEL  GATE3 
+  NMOS LEVEL=3 UO=600  VTO=+0.700 NFS=300E9 TOX=33E-9 
+  NSUB=3E15 VMAX=140E3 RS=400 RD=400 XJ=200E-9 THETA=0.11 
+  ETA=0.06 KAPPA=2 LD=0.1E-6 
+  CGSO=0.3E-9 CGDO=0.3E-9 CBD=0.1E-12 CBS=0.1E-12
.MODEL  GATE4 
+  NMOS LEVEL=3 UO=600  VTO=+0.700 NFS=300E9 TOX=33E-9 
+  NSUB=3E15  VMAX=100E3 RS=400 RD=400 XJ=200E-9 THETA=0.11 
+  ETA=0.06  KAPPA=2 LD=0.1E-6 
+  CGSO=0.3E-9 CGDO=0.3E-9 CBD=0.1E-12 CBS=0.1E-12
.ENDS BF909WR_PH 
 
*   BF992 SPICE MODEL JANUARY 1996 PHILIPS SEMICONDUCTORS 
*   ENVELOPE    SOT143  
*   1.: SOURCE;  2.: DRAIN;  3.: GATE 2;  4.: GATE 1;
.SUBCKT BF992_PH 1 2 3 4
L10          1 10   0.12N
L20          2 20   0.12N
L30          3 30   0.12N
L40          4 40   0.12N
L11         10 11   1.20N
L21         20 21   1.20N
L31         30 31   1.20N
L41         40 41   1.20N
C13         10 30   0.085P
C14         10 40   0.085P
C21         10 20   0.017P
C23         20 30   0.085P
C24         20 40   0.005P
D11         42 11   ZENER
D12         42 41   ZENER
D21         32 11   ZENER
D22         32 31   ZENER
RS          10 12   100
MOS1        61 41 11 12 GATE1 L=2E-6 W=2200E-6
MOS2        21 31 61 12 GATE2 L=3.0E-6 W=2200E-6
.MODEL  ZENER  D  BV=10 CJO=1.2E-12  RS=10
.MODEL  GATE1 
+  NMOS LEVEL=3 UO=904.9  VTO=-0.2051 NFS=300E9 TOX=60E-9 
+  NSUB=3E15 VMAX=140E3 RS=2.0 RD=2.0 XJ=500E-9 THETA=0.11 
+  ETA=0.2095 KAPPA=0.6488 LD=0.3E-6 
+  CGSO=0.3E-9 CGDO=0.3E-9 CBD=0.5E-12 CBS=0.5E-12
.MODEL  GATE2  
+  NMOS LEVEL=3 UO=600  VTO=-0.2051 NFS=300E9 TOX=60E-9 
+  NSUB=3E15  VMAX=100E3 RS=2.0 RD=2.0 XJ=500E-9 THETA=0.11 
+  ETA=0.06  KAPPA=2 LD=0.3E-6 
+  CGSO=0.3E-9 CGDO=0.3E-9 CBD=1.467E-12 CBS=0.5E-12
.ENDS BF992_PH 
 
*   BF994S SPICE MODEL MARCH 1996 PHILIPS SEMICONDUCTORS 
*   ENVELOPE    SOT143  
*   1.: SOURCE;  2.: DRAIN;  3.: GATE 2;  4.: GATE 1;
.SUBCKT BF994S_PH 1 2 3 4
L10          1 10   0.12N
L20          2 20   0.12N
L30          3 30   0.12N
L40          4 40   0.12N
L11         10 11   1.20N
L21         20 21   1.20N
L31         30 31   1.20N
L41         40 41   1.20N
C13         10 30   0.085P
C14         10 40   0.085P
C21         10 20   0.017P
C23         20 30   0.085P
C24         20 40   0.005P
D11         42 11   ZENER
D12         42 41   ZENER
D21         32 11   ZENER
D22         32 31   ZENER
RS          10 12   100
MOS1        61 41 11 12 GATE1 L=2E-6 W=1280E-6
MOS2        21 31 61 12 GATE2 L=3.0E-6 W=1280E-6
.MODEL  ZENER  D  BV=10 CJO=1.2E-12  RS=10
.MODEL  GATE1 
+  NMOS LEVEL=3 UO=750  VTO=-0.4357 NFS=300E9 TOX=60E-9 
+  NSUB=3E15 VMAX=140E3 RS=2.0 RD=2.0 XJ=200E-9 THETA=0.11 
+  ETA=0.1686 KAPPA=2.282 LD=0.3E-6 
+  CGSO=0.3E-9 CGDO=0.3E-9 CBD=0.5E-12 CBS=0.5E-12
.MODEL  GATE2  
+  NMOS LEVEL=3 UO=600  VTO=-0.4357 NFS=300E9 TOX=60E-9 
+  NSUB=3E15  VMAX=100E3 RS=2.0 RD=2.0 XJ=200E-9 THETA=0.11 
+  ETA=0.06  KAPPA=2 LD=0.3E-6 
+  CGSO=0.3E-9 CGDO=0.3E-9 CBD=0.5E-12 CBS=0.5E-12
.ENDS BF994S_PH 
 
*   BF998 SPICE MODEL OCTOBER 1993 PHILIPS SEMICONDUCTORS 
*   ENVELOPE    SOT143  
*   1.: SOURCE;  2.: DRAIN;  3.: GATE 2;  4.: GATE 1;
.SUBCKT BF998_PH 1 2 3 4
L10          1 10   0.12N
L20          2 20   0.12N
L30          3 30   0.12N
L40          4 40   0.12N
L11         10 11   1.20N
L21         20 21   1.20N
L31         30 31   1.20N
L41         40 41   1.20N
C13         10 30   0.085P
C14         10 40   0.085P
C21         10 20   0.017P
C23         20 30   0.085P
C24         20 40   0.005P
D11         42 11   ZENER
D12         42 41   ZENER
D21         32 11   ZENER
D22         32 31   ZENER
RS          10 12   100
MOS1        61 41 11 12 GATE1 L=1.1E-6 W=1150E-6
MOS2        21 31 61 12 GATE2 L=2.0E-6 W=1150E-6
.MODEL  ZENER  D  BV=10 CJO=1.2E-12  RS=10
.MODEL  GATE1 
+  NMOS LEVEL=3 UO=600  VTO=-0.250 NFS=300E9 TOX=42E-9 
+  NSUB=3E15 VMAX=140E3 RS=2.0 RD=2.0 XJ=200E-9 THETA=0.11 
+  ETA=0.06 KAPPA=2 LD=0.1E-6 
+  CGSO=0.3E-9 CGDO=0.3E-9 CBD=0.5E-12 CBS=0.5E-12
.MODEL  GATE2  
+  NMOS LEVEL=3 UO=600  VTO=-0.250 NFS=300E9 TOX=42E-9 
+  NSUB=3E15  VMAX=100E3 RS=2.0 RD=2.0 XJ=200E-9 THETA=0.11 
+  ETA=0.06  KAPPA=2 LD=0.1E-6 
+  CGSO=0.3E-9 CGDO=0.3E-9 CBD=0.5E-12 CBS=0.5E-12
.ENDS BF998_PH 
 
*   BF998R SPICE MODEL OCTOBER 1993 PHILIPS SEMICONDUCTORS 
*   ENVELOPE    SOT143R  
*   1.: SOURCE;  2.: DRAIN;  3.: GATE 2;  4.: GATE 1;
.SUBCKT BF998R_PH 1 2 3 4
L10          1 10   0.12N
L20          2 20   0.12N
L30          3 30   0.12N
L40          4 40   0.12N
L11         10 11   1.20N
L21         20 21   1.20N
L31         30 31   1.20N
L41         40 41   1.20N
C13         10 30   0.085P
C14         10 40   0.085P
C21         10 20   0.017P
C23         20 30   0.085P
C24         20 40   0.005P
D11         42 11   ZENER
D12         42 41   ZENER
D21         32 11   ZENER
D22         32 31   ZENER
RS          10 12   100
MOS1        61 41 11 12 GATE1 L=1.1E-6 W=1150E-6
MOS2        21 31 61 12 GATE2 L=2.0E-6 W=1150E-6
.MODEL  ZENER  D  BV=10 CJO=1.2E-12  RS=10
.MODEL  GATE1 
+  NMOS LEVEL=3 UO=600  VTO=-0.250 NFS=300E9 TOX=42E-9 
+  NSUB=3E15 VMAX=140E3 RS=2.0 RD=2.0 XJ=200E-9 THETA=0.11 
+  ETA=0.06 KAPPA=2 LD=0.1E-6 
+  CGSO=0.3E-9 CGDO=0.3E-9 CBD=0.5E-12 CBS=0.5E-12
.MODEL  GATE2  
+  NMOS LEVEL=3 UO=600  VTO=-0.250 NFS=300E9 TOX=42E-9 
+  NSUB=3E15  VMAX=100E3 RS=2.0 RD=2.0 XJ=200E-9 THETA=0.11 
+  ETA=0.06  KAPPA=2 LD=0.1E-6 
+  CGSO=0.3E-9 CGDO=0.3E-9 CBD=0.5E-12 CBS=0.5E-12
.ENDS BF998R_PH 
 
*   BF998WR SPICE MODEL OCTOBER 1993 PHILIPS SEMICONDUCTORS 
*   ENVELOPE    SOT343R  
*   1.: SOURCE;  2.: DRAIN;  3.: GATE 2;  4.: GATE 1;
.SUBCKT BF998WR_PH 1 2 3 4
L10          1 10   0.10N
L20          2 20   0.34N
L30          3 30   0.34N
L40          4 40   0.34N
L11         10 11   1.10N
L21         20 21   1.10N
L31         30 31   1.10N
L41         40 41   1.10N
C13         10 30   0.060P
C14         10 40   0.060P
C21         10 20   0.050P
C23         20 30   0.070P
C24         20 40   0.005P
D11         42 11   ZENER
D12         42 41   ZENER
D21         32 11   ZENER
D22         32 31   ZENER
RS          10 12   100
MOS1        61 41 11 12 GATE1 L=1.1E-6 W=1150E-6
MOS2        21 31 61 12 GATE2 L=2.0E-6 W=1150E-6
.MODEL  ZENER  D  BV=10 CJO=1.2E-12  RS=10
.MODEL  GATE1 
+  NMOS LEVEL=3 UO=600  VTO=-0.250 NFS=300E9 TOX=42E-9 
+  NSUB=3E15 VMAX=140E3 RS=2.0 RD=2.0 XJ=200E-9 THETA=0.11 
+  ETA=0.06 KAPPA=2 LD=0.1E-6 
+  CGSO=0.3E-9 CGDO=0.3E-9 CBD=0.5E-12 CBS=0.5E-12
.MODEL  GATE2  
+  NMOS LEVEL=3 UO=600  VTO=-0.250 NFS=300E9 TOX=42E-9 
+  NSUB=3E15  VMAX=100E3 RS=2.0 RD=2.0 XJ=200E-9 THETA=0.11 
+  ETA=0.06  KAPPA=2 LD=0.1E-6 
+  CGSO=0.3E-9 CGDO=0.3E-9 CBD=0.5E-12 CBS=0.5E-12
.ENDS BF998WR_PH
.SUBCKT BS250_PH 1 2 3 
* 1=drain  2=gate  3=source
Cgs  2 3 20.1E-12
Cgd1 2 4 57.1E-12
Cgd2 1 4 5E-12
M1 1 2 3 3 MOST1
M2 4 2 1 3 MOST2
D1 1 3 Dbody
.MODEL MOST1 PMOS(LEVEL=3 VTO=-2.3 W=7.6m L=2u KP=10.33u RD=4.014 RS=20m)
.MODEL MOST2 PMOS(VTO=2.43 W=7.6m L=2u KP=10.33u RS=20m)
.MODEL Dbody D(CJO=53.22E-12 VJ=0.5392 M=0.3583 IS=75.32E-15 N=1.016 RS=1.245 
+              TT=86.56n BV=45 IBV=10u)
.ENDS 
 
*PHILIPS SEMICONDUCTORS        Version: 1.0 
*Filename: BSR56.PRM         Date: Oct 1992 
*
.MODEL  BSR56_PH   NJF 
+             VTO = -5.3298E+000 
+            BETA = 2.86527E-003 
+          LAMBDA = 6.19323E-002 
+              RD = 1.62278E+000 
+              RS = 1.62278E+000 
+              IS = 1.18582E-015 
+            CGS  = 1.05000E-011 
+            CGD  = 1.30000E-011 
+              PB = 7.98217E-001 
+              FC = 5.00000E-001 
*Parameter with default value: FC 
 
*PHILIPS SEMICONDUCTORS        Version: 1.0 
*Filename: BSR57.PRM         Date: Oct 1992 
*
.MODEL  BSR57_PH   NJF 
+             VTO = -3.1621E+000 
+            BETA = 5.01519E-003 
+          LAMBDA = 2.40112E-002 
+              RD = 1.48485E+000 
+              RS = 1.48485E+000 
+              IS = 9.11151E-016 
+            CGS  = 1.05000E-011 
+            CGD  = 1.40000E-011 
+              PB = 5.68050E-001 
+              FC = 5.00000E-001 
*Parameter with default value: FC 
 
*PHILIPS SEMICONDUCTORS        Version: 1.0 
*Filename: BSR58.PRM         Date: Oct 1992 
*
.MODEL  BSR58_PH   NJF 
+             VTO = -2.4397E+000 
+            BETA = 6.09357E-003 
+          LAMBDA = 5.26244E-002 
+              RD = 1.26608E+000 
+              RS = 1.26608E+000 
+              IS = 9.89866E-016 
+            CGS  = 1.05000E-011 
+            CGD  = 1.10000E-011 
+              PB = 6.06848E-001 
+              FC = 5.00000E-001 
*Parameter with default value: FC

.SUBCKT BSS123_PH 1 2 3 
* 1=drain  2=gate  3=source
Cgs  2 3 18.8E-12
Cgd1 2 4 57.7E-12
Cgd2 1 4 4E-12
M1 1 2 3 3 MOST1
M2 4 2 1 3 MOST2
D1 3 1 Dbody
.MODEL MOST1 NMOS(Level=3 Kp=20.79u W=7.9m L=2u Rs=20m Vto=1.6 Rd=1.515)
.MODEL MOST2 NMOS(VTO=-4.64 Kp=20.79u W=7.9m L=2u Rs=20m)
.MODEL Dbody D(Is=192.2f N=1.052 Rs=318.2m Cjo=72.35p M=422.8m Vj=494.8m 
+            Bv=100 Ibv=10u Tt=140n)
.ENDS
.SUBCKT BSS192_PH 1 2 3 
* 1=drain  2=gate  3=source
Cgs  2 3 32.3E-12
Cgd1 2 4 180E-12
Cgd2 1 4 6E-12
M1 1 2 3 3 MOST1
M2 4 2 1 3 MOST2
D1 1 3 Dbody
.MODEL MOST1 PMOS(LEVEL=3 VTO=-1.6 W=19m L=2u KP=10.61u RD=8.781 RS=20m)
.MODEL MOST2 PMOS(VTO=2.84 W=19m L=2u KP=10.61u RS=20m)
.MODEL Dbody D(CJO=115.9p VJ=0.6634 M=0.5435 IS=880.8f N=1.078 RS=2.034 
+              TT=346.2n BV=200 IBV=10u)
.ENDS

.MODEL BSS83_PH NMOS (
+ LEVEL=3 
+ W=1E-3 
+ L=1E-6 
+ VTO=2 