.SUBCKT BS107A_PH 1 2 3 
* 1=drain  2=gate  3=source
Cgs  6 3 36.5e-12
Cgd1 6 4 123e-12
Cgd2 1 4 3.5e-12
M1 5 6 3 3 MOST1
M2 4 6 5 3 MOST2
D1 3 5 Dbody
Rd 5 1 Rtemp 4.1
Rg 2 6 10
.MODEL MOST1 NMOS(Level=3 Vto=1.8 Kp=1.63e-7 Eta=3e-6 W=0.1 L=0.1e-6 
+                Rs=0 Rd=0 Ld=0 Wd=0 Uo=500 Vmax=4e7  
+                Xj=5e-7 Kappa=0.08 Nfs=3e12 Theta=5e-3 Tpg=1 
+                Cgbo=0 Cgso=0 Cgdo=0 Delta=0.1 Is=0)
.MODEL MOST2 NMOS(Level=3 Vto=-3.3 Kp=1e-7 Eta=3e-6 W=5e-4 L=0.1e-6 
+                Rs=0 Rd=0 Ld=0 Wd=0 Uo=500 Vmax=0  
+                Xj=0 Kappa=0.2 Nfs=0 Theta=0 Tpg=1 
+                Cgbo=0 Cgso=0 Cgdo=0 Delta=0 Is=0)
.MODEL Dbody D(Is=1e-14 N=0.8 Rs=0 Ikf=1e3 Cjo=0 M=0.5 Vj=0.4 
+                Bv=200 Ibv=10e-6 Tt=40e-9)
.MODEL Rtemp RES(TC1=9e-3 TC2=3.1e-5)
.ENDS
.SUBCKT BSH101_PH 1 2 3 
* 1=drain  2=gate  3=source
Cgs  6 3 74e-12
Cgd1 6 4 103e-12
Cgd2 1 4 3.5e-12
M1 5 6 3 3 MOST1
M2 4 6 5 3 MOST2
D1 3 1 Dbody
Rd 5 1 Rtemp 355e-3
Rg 2 6 55
.MODEL MOST1 NMOS (LEVEL=3 W=0.1 L=0.3e-6 Vto=2.407 Kp=0.315e-5  
+                          RS=0 RD=0 UO=650 VMAX=0 XJ=0.5E-6 KAPPA=10E-2 
+                          ETA=5e-5 TPG=1 IS=0 LD=0 WD=0 CGSO=0 CGDO=0 
+                          CGBO=0 NFS=3.1e12 DELTA=0.1)
.MODEL MOST2 NMOS (LEVEL=3 W=0.1 L=0.3e-6 Vto=-4.39 Kp=0.315e-5  
+                          RS=1000 RD=1000 UO=650 VMAX=0 XJ=0.5E-6 KAPPA=10E-2 
+                          ETA=5e-5 TPG=1 IS=0 LD=0 WD=0 CGSO=0 CGDO=0 
+                          CGBO=0 NFS=0 DELTA=0.1)
.MODEL Dbody D(Is=1e-14 N=0.9 Rs=0.115 Ikf=1e3 Cjo=0 M=0.5 Vj=0.4  
+                          Bv=60 Ibv=10e-6 Tt=40e-9)
.MODEL Rtemp RES(TC1=4.6e-3 TC2=8e-6)
.ENDS
.SUBCKT BSH102_PH 1 2 3 
* 1=drain  2=gate  3=source
Cgs  6 3 52.3e-12
Cgd1 6 4 125e-12
Cgd2 1 4 13e-12
M1 5 6 3 3 MOST1
M2 4 6 5 3 MOST2
D1 3 1 Dbody
Rd 5 1 Rtemp 145e-3
Rg 2 6 35
.MODEL MOST1 NMOS (LEVEL=3 W=0.1 L=0.3e-6 Vto=2 Kp=0.26e-5  
+                          RS=0 RD=0 UO=650 VMAX=0 XJ=0.5E-6 KAPPA=10E-2 
+                          ETA=5e-5 TPG=1 IS=0 LD=0 WD=0 CGSO=0 CGDO=0 
+                          CGBO=0 NFS=2.6e12 DELTA=0.1)
.MODEL MOST2 NMOS (LEVEL=3 W=0.1 L=0.3e-6 Vto=-4.56 Kp=0.26e-5  
+                          RS=1000 RD=1000 UO=650 VMAX=0 XJ=0.5E-6 KAPPA=10E-2 
+                          ETA=5e-5 TPG=1 IS=0 LD=0 WD=0 CGSO=0 CGDO=0 
+                          CGBO=0 NFS=0 DELTA=0.1)
.MODEL Dbody D(Is=1e-14 N=0.9 Rs=0.115 Ikf=1e3 Cjo=0 M=0.5 Vj=0.4 
+                          Bv=30 Ibv=10e-6 Tt=35e-9)
.MODEL Rtemp RES(TC1=3.9e-3 TC2=6.1e-6)
.ENDS
.SUBCKT BSH103_PH 1 2 3 
* 1=drain  2=gate  3=source
Cgs  6 3 57.3e-12
Cgd1 6 4 260e-12
Cgd2 1 4 14e-12
M1 5 6 3 3 MOST1
M2 4 6 5 3 MOST2
D1 3 1 Dbody
Rd 5 1 Rtemp 185e-3
Rg 2 6 60
.MODEL MOST1 NMOS (LEVEL=3 W=0.1 L=0.3e-6 Vto=0.737 Kp=0.606e-5 
+                          RS=0 RD=0 UO=650 VMAX=0 XJ=0.5E-6 KAPPA=10E-2 
+                          ETA=5e-5 TPG=1 IS=0 LD=0 WD=0 CGSO=0 CGDO=0 
+                          CGBO=0 NFS=0.3e12 DELTA=0.1)
.MODEL MOST2 NMOS (LEVEL=3 W=0.1 L=0.3e-6 Vto=-2.92 Kp=0.606e-5 
+                          RS=1000 RD=1000 UO=650 VMAX=0 XJ=0.5E-6 KAPPA=10E-2 
+                          ETA=5e-5 TPG=1 IS=0 LD=0 WD=0 CGSO=0 CGDO=0 
+                          CGBO=0 NFS=0 DELTA=0.1)
.MODEL Dbody D(Is=1e-14 N=0.9 Rs=0.115 Ikf=1e3 Cjo=0 M=0.5 Vj=0.4 
+                          Bv=30 Ibv=10e-6 Tt=30e-9)
.MODEL Rtemp RES(TC1=3.9e-3 TC2=6.1e-6)
.ENDS
.SUBCKT BSH105_PH 1 2 3 
* 1=drain  2=gate  3=source
Cgs  6 3 92e-12
Cgd1 6 4 541e-12
Cgd2 1 4 27.5e-12
M1 5 6 3 3 MOST1
M2 4 6 5 3 MOST2
D1 3 1 Dbody
Rd 5 1 Rtemp 50e-3
Rg 2 6 90
.MODEL MOST1 NMOS (LEVEL=3 W=0.1 L=0.3e-6 Vto=0.914 Kp=1.21e-5 
+                          RS=0 RD=0 UO=650 VMAX=0 XJ=0.5E-6 KAPPA=10E-2 
+                          ETA=5e-5 TPG=1 IS=0 LD=0 WD=0 CGSO=0 CGDO=0 
+                          CGBO=0 NFS=1.17e12 DELTA=0.1)
.MODEL MOST2 NMOS (LEVEL=3 W=0.1 L=0.3e-6 Vto=-3.23 Kp=1.21e-5 
+                          RS=1000 RD=1000 UO=650 VMAX=0 XJ=0.5E-6 KAPPA=10E-2 
+                          ETA=5e-5 TPG=1 IS=0 LD=0 WD=0 CGSO=0 CGDO=0 
+                          CGBO=0 NFS=0 DELTA=0.1)
.MODEL Dbody D(Is=1e-14 N=0.9 Rs=0.044 Ikf=1e3 Cjo=0 M=0.5 Vj=0.4 
+                          Bv=20 Ibv=10e-6 Tt=20e-9)
.MODEL Rtemp RES(TC1=3.9e-3 TC2=6.1e-6)
.ENDS
.SUBCKT BSH106_PH 1 2 3 
* 1=drain  2=gate  3=source
Cgs  6 3 92e-12
Cgd1 6 4 541e-12
Cgd2 1 4 27.5e-12
M1 5 6 3 3 MOST1
M2 4 6 5 3 MOST2
D1 3 1 Dbody
Rd 5 1 Rtemp 50e-3
Rg 2 6 90
.MODEL MOST1 NMOS (LEVEL=3 W=0.1 L=0.3e-6 Vto=0.914 Kp=1.21e-5 
+                          RS=0 RD=0 UO=650 VMAX=0 XJ=0.5E-6 KAPPA=10E-2 
+                          ETA=5e-5 TPG=1 IS=0 LD=0 WD=0 CGSO=0 CGDO=0 
+                          CGBO=0 NFS=1.17e12 DELTA=0.1)
.MODEL MOST2 NMOS (LEVEL=3 W=0.1 L=0.3e-6 Vto=-3.23 Kp=1.21e-5 
+                          RS=1000 RD=1000 UO=650 VMAX=0 XJ=0.5E-6 KAPPA=10E-2 
+                          ETA=5e-5 TPG=1 IS=0 LD=0 WD=0 CGSO=0 CGDO=0 
+                          CGBO=0 NFS=0 DELTA=0.1)
.MODEL Dbody D(Is=1e-14 N=0.9 Rs=0.044 Ikf=1e3 Cjo=0 M=0.5 Vj=0.4 
+                          Bv=20 Ibv=10e-6 Tt=20e-9)
.MODEL Rtemp RES(TC1=3.9e-3 TC2=6.1e-6)
.ENDS
.SUBCKT BSH107_PH 1 2 3 
* 1=drain  2=gate  3=source
Cgs  6 3 294e-12
Cgd1 6 4 1186e-12
Cgd2 1 4 38.2e-12
M1 5 6 3 3 MOST1
M2 4 6 5 3 MOST2
D1 3 1 Dbody
Rd 5 1 Rtemp 43e-3
Rg 2 6 43
.MODEL MOST1 NMOS (LEVEL=3 W=0.1 L=0.3e-6 Vto=0.98 Kp=5.73e-5 
+                          RS=0 RD=0 UO=650 VMAX=0 XJ=0.5E-6 KAPPA=10E-2 
+                          ETA=5e-5 TPG=1 IS=0 LD=0 WD=0 CGSO=0 CGDO=0 
+                          CGBO=0 NFS=0.93e12 DELTA=0.1)
.MODEL MOST2 NMOS (LEVEL=3 W=0.1 L=0.3e-6 Vto=-2.63 Kp=5.73e-5 
+                          RS=1000 RD=1000 UO=650 VMAX=0 XJ=0.5E-6 KAPPA=10E-2 
+                          ETA=5e-5 TPG=1 IS=0 LD=0 WD=0 CGSO=0 CGDO=0 
+                          CGBO=0 NFS=0 DELTA=0.1)
.MODEL Dbody D(Is=1e-14 N=0.7 Rs=53e-3 Ikf=1e3 Cjo=0 M=0.5 Vj=0.4 
+                          Bv=20 Ibv=10e-6 Tt=90e-9)
.MODEL Rtemp RES(TC1=3.9e-3 TC2=6.1e-6)
.ENDS
.SUBCKT BSH201_PH 1 2 3 
* 1=drain  2=gate  3=source
Cgs  6 3 159e-12
Cgd1 6 4 148e-12
Cgd2 1 4 5e-12
M1 5 6 3 3 MOST1
M2 4 6 5 3 MOST2
D1 1 3 Dbody
Rd 5 1 Rtemp 1.6
Rg 2 6 250
.MODEL MOST1 PMOS(Level=3 W=0.1 L=0.3e-6 Vto=-1.91 Kp=9.27e-7 
+                Rs=0 Rd=0 Uo=650 Vmax=0 Xj=5e-7 Kappa=0.08  
+                Eta=2e-5 Tpg=-1 Is=0 Ld=0 Wd=0 Cgso=0 Cgdo=0 
+                Cgbo=0 Nfs=3e12 Delta=0.1 Theta=0)
.MODEL MOST2 PMOS(Level=3 W=0.1 L=0.3e-6 Vto=1.19 Kp=9.27e-7 
+                Rs=1000 Rd=1000 Uo=650 Vmax=0 Xj=5e-7 Kappa=0.08 
+                Eta=2e-5 Tpg=-1 Is=0 Ld=0 Wd=0 Cgso=0 Cgdo=0 
+                Cgbo=0 Nfs=0 Delta=0.1 Theta=0)
.MODEL Dbody D(Is=1e-14 N=0.8 Rs=0.7 Ikf=1e3 Cjo=0 M=0.3 Vj=0.3 
+                Bv=60 Ibv=10e-6 Tt=70e-9 Fc=0.5)
.MODEL Rtemp RES(TC1=5.225e-3 TC2=1.7e-5)
.ENDS
.SUBCKT BSH202_PH 1 2 3 
* 1=drain  2=gate  3=source
Cgs  6 3 150e-12
Cgd1 6 4 122e-12
Cgd2 1 4 9e-12
M1 5 6 3 3 MOST1
M2 4 6 5 3 MOST2
D1 1 3 Dbody
Rd 5 1 Rtemp 525e-3
Rg 2 6 170
.MODEL MOST1 PMOS(Level=3 W=0.1 L=0.3e-6 Vto=-1.69 Kp=0.184e-5 
+                Rs=0 Rd=0 Uo=650 Vmax=0 Xj=5e-7 Kappa=0.08  
+                Eta=2e-4 Tpg=-1 Is=0 Ld=0 Wd=0 Cgso=0 Cgdo=0 
+                Cgbo=0 Nfs=2.2e12 Delta=0.1 Theta=0)
.MODEL MOST2 PMOS(Level=3 W=0.1 L=0.3e-6 Vto=1.86 Kp=0.184e-5 
+                Rs=1000 Rd=1000 Uo=650 Vmax=0 Xj=5e-7 Kappa=0.08 
+                Eta=2e-4 Tpg=-1 Is=0 Ld=0 Wd=0 Cgso=0 Cgdo=0 
+                Cgbo=0 Nfs=0 Delta=0.1 Theta=0)
.MODEL Dbody D(Is=1e-14 N=0.7 Rs=550e-3 Ikf=1e3 Cjo=0 M=0.3 Vj=0.3 
+                Bv=30 Ibv=10e-6 Tt=45e-9 Fc=0.5)
.MODEL Rtemp RES(TC1=4.6e-3 TC2=8e-6)
.ENDS
.SUBCKT BSH203_PH 1 2 3 
* 1=drain  2=gate  3=source
Cgs  6 3 121e-12
Cgd1 6 4 298e-12
Cgd2 1 4 7e-12
M1 5 6 3 3 MOST1
M2 4 6 5 3 MOST2
D1 1 3 Dbody
Rd 5 1 Rtemp 572e-3
Rg 2 6 150
.MODEL MOST1 PMOS(Level=3 W=0.1 L=0.3e-6 Vto=-0.53 Kp=0.513e-5 
+                Rs=0 Rd=0 Uo=650 Vmax=0 Xj=5e-7 Kappa=0.08  
+                Eta=1e-4 Tpg=-1 Is=0 Ld=0 Wd=0 Cgso=0 Cgdo=0 
+                Cgbo=0 Nfs=0.64e12 Delta=0.1 Theta=0)
.MODEL MOST2 PMOS(Level=3 W=0.1 L=0.3e-6 Vto=2.312 Kp=0.513e-5 
+                Rs=1000 Rd=1000 Uo=650 Vmax=0 Xj=5e-7 Kappa=0.08 
+                Eta=1e-4 Tpg=-1 Is=0 Ld=0 Wd=0 Cgso=0 Cgdo=0 
+                Cgbo=0 Nfs=0 Delta=0.1 Theta=0)
.MODEL Dbody D(Is=1e-14 N=0.7 Rs=700e-3 Ikf=1e3 Cjo=0 M=0.3 Vj=0.3 
+                Bv=30 Ibv=10e-6 Tt=35e-9 Fc=0.5)
.MODEL Rtemp RES(TC1=4.6e-3 TC2=8e-6)
.ENDS
.SUBCKT BSH205_PH 1 2 3 
* 1=drain  2=gate  3=source
Cgs  6 3 150e-12
Cgd1 6 4 518e-12
Cgd2 1 4 38.3e-12
M1 5 6 3 3 MOST1
M2 4 6 5 3 MOST2
D1 1 3 Dbody
Rd 5 1 Rtemp 230e-3
Rg 2 6 70
.MODEL MOST1 PMOS(Level=3 W=0.1 L=0.3e-6 Vto=-0.597 Kp=0.848e-5 
+                Rs=0 Rd=0 Uo=650 Vmax=0 Xj=5e-7 Kappa=0.08  
+                Eta=1e-4 Tpg=-1 Is=0 Ld=0 Wd=0 Cgso=0 Cgdo=0 
+                Cgbo=0 Nfs=0.68e12 Delta=0.1 Theta=0)
.MODEL MOST2 PMOS(Level=3 W=0.1 L=0.3e-6 Vto=3 Kp=0.848e-5 
+                Rs=1000 Rd=1000 Uo=650 Vmax=0 Xj=5e-7 Kappa=0.08 
+                Eta=1e-4 Tpg=-1 Is=0 Ld=0 Wd=0 Cgso=0 Cgdo=0 
+                Cgbo=0 Nfs=0 Delta=0.1 Theta=0)
.MODEL Dbody D(Is=1e-14 N=0.7 Rs=370e-3 Ikf=1e3 Cjo=0 M=0.3 Vj=0.3 
+                Bv=12 Ibv=10e-6 Tt=100e-9 Fc=0.5)
.MODEL Rtemp RES(TC1=4.15e-3 TC2=2e-6)
.ENDS
.SUBCKT BSH206_PH 1 2 3 
* 1=drain  2=gate  3=source
Cgs  6 3 150e-12
Cgd1 6 4 518e-12
Cgd2 1 4 38.3e-12
M1 5 6 3 3 MOST1
M2 4 6 5 3 MOST2
D1 1 3 Dbody
Rd 5 1 Rtemp 230e-3
Rg 2 6 70
.MODEL MOST1 PMOS(Level=3 W=0.1 L=0.3e-6 Vto=-0.597 Kp=0.848e-5 
+                Rs=0 Rd=0 Uo=650 Vmax=0 Xj=5e-7 Kappa=0.08  
+                Eta=1e-4 Tpg=-1 Is=0 Ld=0 Wd=0 Cgso=0 Cgdo=0 
+                Cgbo=0 Nfs=0.68e12 Delta=0.1 Theta=0)
.MODEL MOST2 PMOS(Level=3 W=0.1 L=0.3e-6 Vto=3 Kp=0.848e-5 
+                Rs=1000 Rd=1000 Uo=650 Vmax=0 Xj=5e-7 Kappa=0.08 
+                Eta=1e-4 Tpg=-1 Is=0 Ld=0 Wd=0 Cgso=0 Cgdo=0 
+                Cgbo=0 Nfs=0 Delta=0.1 Theta=0)
.MODEL Dbody D(Is=1e-14 N=0.7 Rs=370e-3 Ikf=1e3 Cjo=0 M=0.3 Vj=0.3 
+                Bv=12 Ibv=10e-6 Tt=100e-9 Fc=0.5)
.MODEL Rtemp RES(TC1=4.15e-3 TC2=2e-6)
.ENDS
.SUBCKT BSH207_PH 1 2 3 
* 1=drain  2=gate  3=source
Cgs  6 3 531e-12
Cgd1 6 4 1.6e-9
Cgd2 1 4 36.7e-12
M1 5 6 3 3 MOST1
M2 4 6 5 3 MOST2
D1 1 3 Dbody
Rd 5 1 Rtemp 70e-3
Rg 2 6 30
.MODEL MOST1 PMOS(Level=3 W=0.1 L=0.3e-6 Vto=-0.584 Kp=2.94e-5 
+                Rs=0 Rd=0 Uo=650 Vmax=0 Xj=5e-7 Kappa=0.08  
+                Eta=1e-4 Tpg=-1 Is=0 Ld=0 Wd=0 Cgso=0 Cgdo=0 
+                Cgbo=0 Nfs=0.42e12 Delta=0.1 Theta=0)
.MODEL MOST2 PMOS(Level=3 W=0.1 L=0.3e-6 Vto=2 Kp=2.94e-5 
+                Rs=1000 Rd=1000 Uo=650 Vmax=0 Xj=5e-7 Kappa=0.08 
+                Eta=1e-4 Tpg=-1 Is=0 Ld=0 Wd=0 Cgso=0 Cgdo=0 
+                Cgbo=0 Nfs=0 Delta=0.1 Theta=0)
.MODEL Dbody D(Is=1e-14 N=0.7 Rs=50e-3 Ikf=1e3 Cjo=0 M=0.3 Vj=0.3 
+                Bv=12 Ibv=10e-6 Tt=105e-9 Fc=0.5)
.MODEL Rtemp RES(TC1=4.15e-3 TC2=2e-6)
.ENDS
.SUBCKT BSN10_PH 1 2 3 
* 1=drain  2=gate  3=source
Cgs  2 3 6E-12
Cgd1 2 4 16.5E-12
Cgd2 1 4 2E-12
M1 1 2 3 3 MOST1
M2 4 2 1 3 MOST2
D1 3 1 Dbody
.MODEL MOST1 NMOS(Level=3 Kp=20.71u W=3.1m L=2u Rs=20m Vto=1 Rd=3.231)
.MODEL MOST2 NMOS(VTO=-5 Kp=20.71u W=3.1m L=2u Rs=20m)
.MODEL Dbody D(Is=56.31f N=1.084 Rs=467m Cjo=19.08p M=357.6m Vj=407.9m 
+            Bv=50 Ibv=10u Tt=100n)
.ENDS
.SUBCKT BSN10A_PH 1 2 3 
* 1=drain  2=gate  3=source
Cgs  2 3 6E-12
Cgd1 2 4 16.5E-12
Cgd2 1 4 2E-12
M1 1 2 3 3 MOST1
M2 4 2 1 3 MOST2
D1 3 1 Dbody
.MODEL MOST1 NMOS(Level=3 Kp=20.71u W=3.1m L=2u Rs=20m Vto=1 Rd=3.231)
.MODEL MOST2 NMOS(VTO=-5 Kp=20.71u W=3.1m L=2u Rs=20m)
.MODEL Dbody D(Is=56.31f N=1.084 Rs=467m Cjo=19.08p M=357.6m Vj=407.9m 
+            Bv=50 Ibv=10u Tt=100n)
.ENDS
.SUBCKT BSN20_PH 1 2 3 
* 1=drain  2=gate  3=source
Cgs  2 3 6E-12
Cgd1 2 4 16.5E-12
Cgd2 1 4 2E-12
M1 1 2 3 3 MOST1
M2 4 2 1 3 MOST2
D1 3 1 Dbody
.MODEL MOST1 NMOS(Level=3 Kp=20.71u W=3.1m L=2u Rs=20m Vto=1 Rd=3.231)
.MODEL MOST2 NMOS(VTO=-5 Kp=20.71u W=3.1m L=2u Rs=20m)
.MODEL Dbody D(Is=56.31f N=1.084 Rs=467m Cjo=19.08p M=357.6m Vj=407.9m 
+            Bv=50 Ibv=10u Tt=100n)
.ENDS
.SUBCKT BSN205_PH 1 2 3 
* 1=drain  2=gate  3=source
Cgs  6 3 36.5e-12
Cgd1 6 4 123e-12
Cgd2 1 4 3.5e-12
M1 5 6 3 3 MOST1
M2 4 6 5 3 MOST2
D1 3 5 Dbody
Rd 5 1 Rtemp 4.1
Rg 2 6 10
.MODEL MOST1 NMOS(Level=3 Vto=1.8 Kp=1.63e-7 Eta=3e-6 W=0.1 L=0.1e-6 
+                Rs=0 Rd=0 Ld=0 Wd=0 Uo=500 Vmax=4e7 
+                Xj=5e-7 Kappa=0.08 Nfs=3e12 Theta=5e-3 Tpg=1 
+                Cgbo=0 Cgso=0 Cgdo=0 Delta=0.1 Is=0)
.MODEL MOST2 NMOS(Level=3 Vto=-3.3 Kp=1e-7 Eta=3e-6 W=5e-4 L=0.1e-6 
+                Rs=0 Rd=0 Ld=0 Wd=0 Uo=500 Vmax=0 
+                Xj=0 Kappa=0.2 Nfs=0 Theta=0 Tpg=1 
+                Cgbo=0 Cgso=0 Cgdo=0 Delta=0 Is=0)
.MODEL Dbody D(Is=1e-14 N=0.8 Rs=0 Ikf=1e3 Cjo=0 M=0.5 Vj=0.4 
+                Bv=200 Ibv=10e-6 Tt=40e-9)
.MODEL Rtemp RES(TC1=9e-3 TC2=3.1e-5)
.ENDS
.SUBCKT BSN205A_PH 1 2 3 
* 1=drain  2=gate  3=source
Cgs  6 3 36.5e-12
Cgd1 6 4 123e-12
Cgd2 1 4 3.5e-12
M1 5 6 3 3 MOST1
M2 4 6 5 3 MOST2
D1 3 5 Dbody
Rd 5 1 Rtemp 4.1
Rg 2 6 10
.MODEL MOST1 NMOS(Level=3 Vto=1.8 Kp=1.63e-7 Eta=3e-6 W=0.1 L=0.1e-6 
+                Rs=0 Rd=0 Ld=0 Wd=0 Uo=500 Vmax=4e7 
+                Xj=5e-7 Kappa=0.08 Nfs=3e12 Theta=5e-3 Tpg=1 
+                Cgbo=0 Cgso=0 Cgdo=0 Delta=0.1 Is=0)
.MODEL MOST2 NMOS(Level=3 Vto=-3.3 Kp=1e-7 Eta=3e-6 W=5e-4 L=0.1e-6 
+                Rs=0 Rd=0 Ld=0 Wd=0 Uo=500 Vmax=0 
+                Xj=0 Kappa=0.2 Nfs=0 Theta=0 Tpg=1 
+                Cgbo=0 Cgso=0 Cgdo=0 Delta=0 Is=0)
.MODEL Dbody D(Is=1e-14 N=0.8 Rs=0 Ikf=1e3 Cjo=0 M=0.5 Vj=0.4 
+                Bv=200 Ibv=10e-6 Tt=40e-9)
.MODEL Rtemp RES(TC1=9e-3 TC2=3.1e-5)
.ENDS
.SUBCKT BSN20W_PH 1 2 3 
* 1=drain  2=gate  3=source
Cgs  2 3 6E-12
Cgd1 2 4 16.5E-12
Cgd2 1 4 2E-12
M1 1 2 3 3 MOST1
M2 4 2 1 3 MOST2
D1 3 1 Dbody
.MODEL MOST1 NMOS(Level=3 Kp=20.71u W=3.1m L=2u Rs=20m Vto=1 Rd=3.231)
.MODEL MOST2 NMOS(VTO=-5 Kp=20.71u W=3.1m L=2u Rs=20m)
.MODEL Dbody D(Is=56.31f N=1.084 Rs=467m Cjo=19.08p M=357.6m Vj=407.9m 
+            Bv=50 Ibv=10u Tt=100n)
.ENDS
.SUBCKT BSN254_PH   10 20 40 
* 10=drain  20=gate  40=source
M1   1  2  3  3  DMOS L=1U W=1U
RD  10  1  2.85
RS  30  3  .151
RG  20  2  5
CGS  2  3  60P
EGD 12  0  2  1  1
VFB 14  0  0
FFB  2  1  VFB  1
CGD 13 14  64.2P
R1  13  0  1
D1  12 13  DLIM
DDG 15 14  DCGD
R2  12 15  1
D2  15  0  DLIM
DSD  3 10  DSUB
LS  30 40  3N
.MODEL DMOS NMOS (LEVEL=3 THETA=80M VMAX=521K ETA=2M VTO=1.4 KP=.52)
.MODEL DCGD D (CJO=64.2P VJ=.6 M=.68)
.MODEL DSUB D (IS=1.45N N=1.5 RS=1.35 BV=250 CJO=64.5P VJ=.8 M=.42 TT=102N)
.MODEL DLIM D (IS=100U)
.ENDS
.SUBCKT BSN254A_PH   10 20 40 
* 10=drain  20=gate  40=source
M1   1  2  3  3  DMOS L=1U W=1U
RD  10  1  2.85
RS  30  3  .151
RG  20  2  5
CGS  2  3  60P
EGD 12  0  2  1  1
VFB 14  0  0
FFB  2  1  VFB  1
CGD 13 14  64.2P
R1  13  0  1
D1  12 13  DLIM
DDG 15 14  DCGD
R2  12 15  1
D2  15  0  DLIM
DSD  3 10  DSUB
LS  30 40  3N
.MODEL DMOS NMOS (LEVEL=3 THETA=80M VMAX=521K ETA=2M VTO=1.4 KP=.52)
.MODEL DCGD D (CJO=64.2P VJ=.6 M=.68)
.MODEL DSUB D (IS=1.45N N=1.5 RS=1.35 BV=250 CJO=64.5P VJ=.8 M=.42 TT=102N)
.MODEL DLIM D (IS=100U)
.ENDS
.SUBCKT BSN304_PH 1 2 3 
* 1=drain  2=gate  3=source
Cgs  2 3 40.5E-12
Cgd1 2 4 135.8E-12
Cgd2 1 4 2.6E-12
M1 1 2 3 3 MOST1
M2 4 2 1 3 MOST2
D1 3 1 Dbody
.MODEL MOST1 NMOS(Level=3 Kp=20.95E-6 W=28E-3 L=2E-6 Rs=20E-3 Vto=1.5 Rd=6.276)
.MODEL MOST2 NMOS(Vto=-3.8 Kp=20.95E-6 W=28E-3 L=2E-6 Rs=20E-3)
.MODEL Dbody D(Is=7.368E-12 N=1.072 Rs=.8316 Ikf=0 Cjo=150.3E-12 M=.5682 
+              Vj=.3644 Bv=300 Ibv=10E-6 Tt=432.8E-9)
.ENDS
.SUBCKT BSN304A_PH 1 2 3 
* 1=drain  2=gate  3=source
Cgs  2 3 40.5E-12
Cgd1 2 4 135.8E-12
Cgd2 1 4 2.6E-12
M1 1 2 3 3 MOST1
M2 4 2 1 3 MOST2
D1 3 1 Dbody
.MODEL MOST1 NMOS(Level=3 Kp=20.95E-6 W=28E-3 L=2E-6 Rs=20E-3 Vto=1.5 Rd=6.276)
.MODEL MOST2 NMOS(Vto=-3.8 Kp=20.95E-6 W=28E-3 L=2E-6 Rs=20E-3)
.MODEL Dbody D(Is=7.368E-12 N=1.072 Rs=.8316 Ikf=0 Cjo=150.3E-12 M=.5682 
+              Vj=.3644 Bv=300 Ibv=10E-6 Tt=432.8E-9)
.ENDS
.SUBCKT BSP100_PH 1 2 3 
* 1=drain  2=gate  3=source
Cgs  6 3 190E-12
Cgd1 6 4 409E-12
Cgd2 1 4 50E-12
M1 5 6 3 3 MOST1
M2 4 6 5 3 MOST2
D1 3 5 Dbody
Rd 5 1 Rtemp 11e-3
Rg 2 6 22
.MODEL MOST1 NMOS(Level=3 Vto=1.6 Kp=1.8e-7 Eta=3e-6 W=1 L=0.1e-6 
+                Rs=0 Rd=0 Ld=0 Wd=0 Uo=500 Vmax=4e7  
+                Xj=5e-7 Kappa=0.08 Nfs=3e12 Theta=5e-3 Tpg=1 
+                Cgbo=0 Cgso=0 Cgdo=0 Delta=0.1 Is=0)
.MODEL MOST2 NMOS(Level=3 Vto=-3.9 Kp=1.8e-7 Eta=3e-6 W=7e-5 L=0.1e-6 
+                Rs=0 Rd=0 Ld=0 Wd=0 Uo=500 Vmax=0  
+                Xj=0 Kappa=0.2 Nfs=0 Theta=0 Tpg=1 
+                Cgbo=0 Cgso=0 Cgdo=0 Delta=0 Is=0)
.MODEL Dbody D(Is=1e-14 N=0.9 Rs=35e-3 Ikf=1e3 Cjo=0 M=0.5 Vj=0.4  
+                Bv=30 Ibv=10e-6 Tt=40e-9)
.MODEL Rtemp RES(TC1=4.3e-3 TC2=4e-6)
.ENDS
.SUBCKT BSP110_PH   10 20 40 
* 10=drain  20=gate  40=source
M1   1  2  3  3  DMOS L=1U W=1U
RD  10  1  2.13
RS  30  3  .113
RG  20  2  4.61
CGS  2  3  12P
EGD 12  0  2  1  1
VFB 14  0  0
FFB  2  1  VFB  1
CGD 13 14  41.1P
R1  13  0  1
D1  12 13  DLIM
DDG 15 14  DCGD
R2  12 15  1
D2  15  0  DLIM
DSD  3 10  DSUB
LS  30 40  7.5N
.MODEL DMOS NMOS (LEVEL=3 THETA=80M VMAX=166K ETA=2M VTO=1.8 KP=.141)
.MODEL DCGD D (CJO=41.1P VJ=.6 M=.68)
.MODEL DSUB D (IS=1.34N N=1.5 RS=1.2 BV=80 CJO=29.8P VJ=.8 M=.42 TT=100N)
.MODEL DLIM D (IS=100U)
.ENDS
.SUBCKT BSP121_PH 1 2 3 
* 1=drain  2=gate  3=source
Cgs  6 3 36.5e-12
Cgd1 6 4 123e-12
Cgd2 1 4 3.5e-12
M1 5 6 3 3 MOST1
M2 4 6 5 3 MOST2
D1 3 5 Dbody
Rd 5 1 Rtemp 4.1
Rg 2 6 10
.MODEL MOST1 NMOS(Level=3 Vto=1.8 Kp=1.63e-7 Eta=3e-6 W=0.1 L=0.1e-6 
+                Rs=0 Rd=0 Ld=0 Wd=0 Uo=500 Vmax=4e7  
+                Xj=5e-7 Kappa=0.08 Nfs=3e12 Theta=5e-3 Tpg=1 
+                Cgbo=0 Cgso=0 Cgdo=0 Delta=0.1 Is=0)
.MODEL MOST2 NMOS(Level=3 Vto=-3.3 Kp=1e-7 Eta=3e-6 W=5e-4 L=0.1e-6 
+                Rs=0 Rd=0 Ld=0 Wd=0 Uo=500 Vmax=0  
+                Xj=0 Kappa=0.2 Nfs=0 Theta=0 Tpg=1 
+                Cgbo=0 Cgso=0 Cgdo=0 Delta=0 Is=0)
.MODEL Dbody D(Is=1e-14 N=0.8 Rs=0 Ikf=1e3 Cjo=0 M=0.5 Vj=0.4 
+                Bv=200 Ibv=10e-6 Tt=40e-9)
.MODEL Rtemp RES(TC1=9e-3 TC2=3.1e-5)
.ENDS
.SUBCKT BSP126_PH   10 20 40 
* 10=drain  20=gate  40=source
M1   1  2  3  3  DMOS L=1U W=1U
RD  10  1  2.85
RS  30  3  .151
RG  20  2  5
CGS  2  3  60P
EGD 12  0  2  1  1
VFB 14  0  0
FFB  2  1  VFB  1
CGD 13 14  64.2P
R1  13  0  1
D1  12 13  DLIM
DDG 15 14  DCGD
R2  12 15  1
D2  15  0  DLIM
DSD  3 10  DSUB
LS  30 40  3N
.MODEL DMOS NMOS (LEVEL=3 THETA=80M VMAX=521K ETA=2M VTO=1.4 KP=.52)
.MODEL DCGD D (CJO=64.2P VJ=.6 M=.68)
.MODEL DSUB D (IS=1.45N N=1.5 RS=1.35 BV=250 CJO=64.5P VJ=.8 M=.42 TT=102N)
.MODEL DLIM D (IS=100U)
.ENDS
.SUBCKT BSP130_PH 1 2 3 
* 1=drain  2=gate  3=source
Cgs  2 3 40.5E-12
Cgd1 2 4 135.8E-12
Cgd2 1 4 2.6E-12
M1 1 2 3 3 MOST1
M2 4 2 1 3 MOST2
D1 3 1 Dbody
.MODEL MOST1 NMOS(Level=3 Kp=20.95E-6 W=28E-3 L=2E-6 Rs=20E-3 Vto=1.5 Rd=6.276)
.MODEL MOST2 NMOS(Vto=-3.8 Kp=20.95E-6 W=28E-3 L=2E-6 Rs=20E-3)
.MODEL Dbody D(Is=7.368E-12 N=1.072 Rs=.8316 Ikf=0 Cjo=150.3E-12 M=.5682 
+              Vj=.3644 Bv=300 Ibv=10E-6 Tt=432.8E-9)
.ENDS
.SUBCKT BSP204_PH 1 2 3 
* 1=drain  2=gate  3=source
Cgs  2 3 32.3E-12
Cgd1 2 4 180E-12
Cgd2 1 4 6E-12
M1 1 2 3 3 MOST1
M2 4 2 1 3 MOST2
D1 1 3 Dbody
.MODEL MOST1 PMOS(LEVEL=3 VTO=-1.6 W=19m L=2u KP=10.61u RD=8.781 RS=20m)
.MODEL MOST2 PMOS(VTO=2.84 W=19m L=2u KP=10.61u RS=20m)
.MODEL Dbody D(CJO=115.9p VJ=0.6634 M=0.5435 IS=880.8f N=1.078 RS=2.034 
+              TT=346.2n BV=200 IBV=10u)
.ENDS
.SUBCKT BSP204A_PH 1 2 3 
* 1=drain  2=gate  3=source
Cgs  2 3 32.3E-12
Cgd1 2 4 180E-12
Cgd2 1 4 6E-12
M1 1 2 3 3 MOST1
M2 4 2 1 3 MOST2
D1 1 3 Dbody
.MODEL MOST1 PMOS(LEVEL=3 VTO=-1.6 W=19m L=2u KP=10.61u RD=8.781 RS=20m)
.MODEL MOST2 PMOS(VTO=2.84 W=19m L=2u KP=10.61u RS=20m)
.MODEL Dbody D(CJO=115.9p VJ=0.6634 M=0.5435 IS=880.8f N=1.078 RS=2.034 
+              TT=346.2n BV=200 IBV=10u)
.ENDS
.SUBCKT BSP205_PH 1 2 3 
* 1=drain  2=gate  3=source
Cgs  2 3 20.1E-12
Cgd1 2 4 57.1E-12
Cgd2 1 4 5E-12
M1 1 2 3 3 MOST1
M2 4 2 1 3 MOST2
D1 1 3 Dbody
.MODEL MOST1 PMOS(LEVEL=3 VTO=-2.3 W=7.6m L=2u KP=10.33u RD=4.014 RS=20m)
.MODEL MOST2 PMOS(VTO=2.43 W=7.6m L=2u KP=10.33u RS=20m)
.MODEL Dbody D(CJO=53.22E-12 VJ=0.5392 M=0.3583 IS=75.32E-15 N=1.016 RS=1.245 
+              TT=86.56n BV=60 IBV=10u)
.ENDS
.SUBCKT BSP206_PH 1 2 3 
* 1=drain  2=gate  3=source
Cgs  2 3 35.9E-12
Cgd1 2 4 95.1E-12
Cgd2 1 4 8E-12
M1 1 2 3 3 MOST1
M2 4 2 1 3 MOST2
D1 1 3 Dbody
.MODEL MOST1 PMOS(LEVEL=3 VTO=-2.4 W=19m L=2u KP=10.61u RD=3.151 RS=20m)
.MODEL MOST2 PMOS(VTO=2.23 W=19m L=2u KP=10.61u RS=20m)
.MODEL Dbody D(CJO=76.71p VJ=0.5918 M=0.3784 IS=116.4f N=1.013 RS=1.96 
+              TT=92.33n BV=60 IBV=10u)
.ENDS
.SUBCKT BSP225_PH   10 20 40 
* 10=drain  20=gate  40=source
M1   1  2  3  3  DMOS L=1U W=1U
RD  10  1  4.75
RS  30  3  .251
RG  20  2  6.67
CGS  2  3  59P
EGD 12  0  1  2  1
VFB 14  0  0
FFB  1  2  VFB  1
CGD 13 14  77P
R1  13  0  1
D1  12 13  DLIM
DDG 15 14  DCGD
R2  12 15  1
D2  15  0  DLIM
DSD 10  3  DSUB
LS  30 40  3N
.MODEL DMOS PMOS (LEVEL=3 THETA=80M VMAX=521K ETA=2m VTO=-1.8 KP=.195)
.MODEL DCGD D (CJO=77P VJ=.6 M=.68)
.MODEL DSUB D (IS=934P N=1.5 RS=2.11 BV=250 CJO=60.2P VJ=.8 M=.42 TT=90.1N)
.MODEL DLIM D (IS=100U)
.ENDS
.SUBCKT BSP230_PH 1 2 3 
* 1=drain  2=gate  3=source
Cgs  2 3 41.3E-12
Cgd1 2 4 148.7E-12
Cgd2 1 4 5E-12
M1 1 2 3 3 MOST1
M2 4 2 1 3 MOST2
D1 1 3 Dbody
.MODEL MOST1 PMOS(LEVEL=3 KP=10.31e-6 W=23e-3 L=2e-6 Rs=20e-3 VTO=-2.4 Rd=13.06)
.MODEL MOST2 PMOS(VTO=3.1 KP=10.31e-6 W=23e-3 L=2e-6 Rs=20e-3)
.MODEL Dbody D(Is=1.493E-14 N=0.9364 Rs=2 CJO=9.5E-11 VJ=0.9919 M=0.5697 
+              TT=865.6E-9 BV=300 IBV=10E-6)
.ENDS
.SUBCKT BSP250_PH 1 2 3 
* 1=drain  2=gate  3=source
Cgs  6 3 216e-12
Cgd1 6 4 529e-12
Cgd2 1 4 50e-12
M1 5 6 3 3 MOST1
M2 4 6 5 3 MOST2
D1 1 3 Dbody
Rd 5 1 Rtemp 25e-3
Rg 2 6 50
.MODEL MOST1 PMOS(Level=3 Vto=-1.6 Kp=9.5e-8 Eta=1e-5 W=1 L=0.1e-6 
+                Rs=0 Rd=0 Ld=0 Wd=0 Uo=500 Vmax=4e7  
+                Xj=5e-7 Kappa=0.08 Nfs=3e12 Theta=5e-3 Tpg=1 
+                Cgbo=0 Cgso=0 Cgdo=0 Delta=0.1 Is=0)
.MODEL MOST2 PMOS(Level=3 Vto=3.8 Kp=9.5e-8 Eta=1e-5 W=1.5e-4 L=0.1e-6 
+                Rs=0 Rd=0 Ld=0 Wd=0 Uo=500 Vmax=0  
+                Xj=0 Kappa=0.2 Nfs=0 Theta=0 Tpg=1 
+                Cgbo=0 Cgso=0 Cgdo=0 Delta=0 Is=0)
.MODEL Dbody D(Is=1e-14 N=1 Rs=190e-3 Ikf=1e3 Cjo=0 M=0.5 Vj=0.4 
+                Bv=30 Ibv=10e-6 Tt=230e-9)
.MODEL Rtemp RES(TC1=4.15e-3 TC2=2e-6)
.ENDS
.SUBCKT BSP254_PH   10 20 40 
* 10=drain  20=gate  40=source
M1   1  2  3  3  DMOS L=1U W=1U
RD  10  1  4.75
RS  30  3  .251
RG  20  2  6.67
CGS  2  3  59P
EGD 12  0  1  2  1
VFB 14  0  0
FFB  1  2  VFB  1
CGD 13 14  77P
R1  13  0  1
D1  12 13  DLIM
DDG 15 14  DCGD
R2  12 15  1
D2  15  0  DLIM
DSD 10  3  DSUB
LS  30 40  3N
.MODEL DMOS PMOS (LEVEL=3 THETA=80M VMAX=521K ETA=2m VTO=-1.8 KP=.195)
.MODEL DCGD D (CJO=77P VJ=.6 M=.68)
.MODEL DSUB D (IS=934P N=1.5 RS=2.11 BV=250 CJO=60.2P VJ=.8 M=.42 TT=90.1N)
.MODEL DLIM D (IS=100U)
.ENDS
.SUBCKT BSP254A_PH   10 20 40 
* 10=drain  20=gate  40=source
M1   1  2  3  3  DMOS L=1U W=1U
RD  10  1  4.75
RS  30  3  .251
RG  20  2  6.67
CGS  2  3  59P
EGD 12  0  1  2  1
VFB 14  0  0
FFB  1  2  VFB  1
CGD 13 14  77P
R1  13  0  1
D1  12 13  DLIM
DDG 15 14  DCGD
R2  12 15  1
D2  15  0  DLIM
DSD 10  3  DSUB
LS  30 40  3N
.MODEL DMOS PMOS (LEVEL=3 THETA=80M VMAX=521K ETA=2m VTO=-1.8 KP=.195)
.MODEL DCGD D (CJO=77P VJ=.6 M=.68)
.MODEL DSUB D (IS=934P N=1.5 RS=2.11 BV=250 CJO=60.2P VJ=.8 M=.42 TT=90.1N)
.MODEL DLIM D (IS=100U)
.ENDS
.SUBCKT BSP304_PH 1 2 3 
* 1=drain  2=gate  3=source
Cgs  2 3 41.3E-12
Cgd1 2 4 148.7E-12
Cgd2 1 4 5E-12
M1 1 2 3 3 MOST1
M2 4 2 1 3 MOST2
D1 1 3 Dbody
.MODEL MOST1 PMOS(LEVEL=3 KP=10.31e-6 W=23e-3 L=2e-6 Rs=20e-3 VTO=-2.4 Rd=13.06)
.MODEL MOST2 PMOS(VTO=3.1 KP=10.31e-6 W=23e-3 L=2e-6 Rs=20e-3)
.MODEL Dbody D(Is=1.493E-14 N=0.9364 Rs=2 CJO=9.5E-11 VJ=0.9919 M=0.5697 
+              TT=865.6E-9 BV=300 IBV=10E-6)
.ENDS
.SUBCKT BSP304A_PH 1 2 3 
* 1=drain  2=gate  3=source
Cgs  2 3 41.3E-12
Cgd1 2 4 148.7E-12
Cgd2 1 4 5E-12
M1 1 2 3 3 MOST1
M2 4 2 1 3 MOST2
D1 1 3 Dbody
.MODEL MOST1 PMOS(LEVEL=3 KP=10.31e-6 W=23e-3 L=2e-6 Rs=20e-3 VTO=-2.4 Rd=13.06)
.MODEL MOST2 PMOS(VTO=3.1 KP=10.31e-6 W=23e-3 L=2e-6 Rs=20e-3)
.MODEL Dbody D(Is=1.493E-14 N=0.9364 Rs=2 CJO=9.5E-11 VJ=0.9919 M=0.5697 
+              TT=865.6E-9 BV=300 IBV=10E-6)
.ENDS
.SUBCKT BSP92_PH 1 2 3 
* 1=drain  2=gate  3=source
Cgs  6 3 49e-12
Cgd1 6 4 168e-12
Cgd2 1 4 6e-12
M1 5 6 3 3 MOST1
M2 4 6 5 3 MOST2
D1 1 3 Dbody
Rd 5 1 Rtemp 15
Rg 2 6 50
.MODEL MOST1 PMOS(Level=3 Vto=-1.4 Kp=2.2e-7 Eta=5e-6 W=0.1 L=0.1e-6 
+                Rs=0 Rd=0 Ld=0 Wd=0 Uo=500 Vmax=4e7  
+                Xj=5e-7 Kappa=0.08 Nfs=3e12 Theta=5e-3 Tpg=1 
+                Cgbo=0 Cgso=0 Cgdo=0 Delta=0.1 Is=0)
.MODEL MOST2 PMOS(Level=3 Vto=2.77 Kp=2.2e-7 Eta=5e-6 W=1e-4 L=0.1e-6 
+                Rs=0 Rd=0 Ld=0 Wd=0 Uo=500 Vmax=0  
+                Xj=0 Kappa=0.2 Nfs=0 Theta=0 Tpg=1 
+                Cgbo=0 Cgso=0 Cgdo=0 Delta=0 Is=0)
.MODEL Dbody D(Is=1e-14 N=0.8 Rs=1.67 Ikf=1e3 Cjo=0 M=0.5 Vj=0.4 
+                Bv=240 Ibv=10e-6 Tt=80e-9)
.MODEL Rtemp RES(TC1=4.15e-3 TC2=2e-6)
.ENDS
.SUBCKT BSS87_PH 1 2 3 
* 1=drain  2=gate  3=source
Cgs  6 3 36.5e-12
Cgd1 6 4 123e-12
Cgd2 1 4 3.5e-12
M1 5 6 3 3 MOST1
M2 4 6 5 3 MOST2
D1 3 5 Dbody
Rd 5 1 Rtemp 4.1
Rg 2 6 10
.MODEL MOST1 NMOS(Level=3 Vto=1.8 Kp=1.63e-7 Eta=3e-6 W=0.1 L=0.1e-6 
+                Rs=0 Rd=0 Ld=0 Wd=0 Uo=500 Vmax=4e7  
+                Xj=5e-7 Kappa=0.08 Nfs=3e12 Theta=5e-3 Tpg=1 
+                Cgbo=0 Cgso=0 Cgdo=0 Delta=0.1 Is=0)
.MODEL MOST2 NMOS(Level=3 Vto=-3.3 Kp=1e-7 Eta=3e-6 W=5e-4 L=0.1e-6 
+                Rs=0 Rd=0 Ld=0 Wd=0 Uo=500 Vmax=0  
+                Xj=0 Kappa=0.2 Nfs=0 Theta=0 Tpg=1 
+                Cgbo=0 Cgso=0 Cgdo=0 Delta=0 Is=0)
.MODEL Dbody D(Is=1e-14 N=0.8 Rs=0 Ikf=1e3 Cjo=0 M=0.5 Vj=0.4 
+                Bv=200 Ibv=10e-6 Tt=40e-9)
.MODEL Rtemp RES(TC1=9e-3 TC2=3.1e-5)
.ENDS
.SUBCKT BSS89_PH 1 2 3 
* 1=drain  2=gate  3=source
Cgs  6 3 36.5e-12
Cgd1 6 4 123e-12
Cgd2 1 4 3.5e-12
M1 5 6 3 3 MOST1
M2 4 6 5 3 MOST2
D1 3 5 Dbody
Rd 5 1 Rtemp 4.1
Rg 2 6 10
.MODEL MOST1 NMOS(Level=3 Vto=1.8 Kp=1.63e-7 Eta=3e-6 W=0.1 L=0.1e-6 
+                Rs=0 Rd=0 Ld=0 Wd=0 Uo=500 Vmax=4e7  
+                Xj=5e-7 Kappa=0.08 Nfs=3e12 Theta=5e-3 Tpg=1 
+                Cgbo=0 Cgso=0 Cgdo=0 Delta=0.1 Is=0)
.MODEL MOST2 NMOS(Level=3 Vto=-3.3 Kp=1e-7 Eta=3e-6 W=5e-4 L=0.1e-6 
+                Rs=0 Rd=0 Ld=0 Wd=0 Uo=500 Vmax=0  
+                Xj=0 Kappa=0.2 Nfs=0 Theta=0 Tpg=1 
+                Cgbo=0 Cgso=0 Cgdo=0 Delta=0 Is=0)
.MODEL Dbody D(Is=1e-14 N=0.8 Rs=0 Ikf=1e3 Cjo=0 M=0.5 Vj=0.4 
+                Bv=200 Ibv=10e-6 Tt=40e-9)
.MODEL Rtemp RES(TC1=9e-3 TC2=3.1e-5)
.ENDS
.SUBCKT BSS92_PH 1 2 3 
* 1=drain  2=gate  3=source
Cgs  2 3 32.3E-12
Cgd1 2 4 180E-12
Cgd2 1 4 6E-12
M1 1 2 3 3 MOST1
M2 4 2 1 3 MOST2
D1 1 3 Dbody
.MODEL MOST1 PMOS(LEVEL=3 VTO=-1.6 W=19m L=2u KP=10.61u RD=8.781 RS=20m)
.MODEL MOST2 PMOS(VTO=2.84 W=19m L=2u KP=10.61u RS=20m)
.MODEL Dbody D(CJO=115.9p VJ=0.6634 M=0.5435 IS=880.8f N=1.078 RS=2.034 
+              TT=346.2n BV=200 IBV=10u)
.ENDS
.SUBCKT BST100_PH 1 2 3 
* 1=drain  2=gate  3=source
Cgs  2 3 35.9E-12
Cgd1 2 4 95.1E-12
Cgd2 1 4 8E-12
M1 1 2 3 3 MOST1
M2 4 2 1 3 MOST2
D1 1 3 Dbody
.MODEL MOST1 PMOS(LEVEL=3 VTO=-2.4 W=19m L=2u KP=10.61u RD=3.151 RS=20m)
.MODEL MOST2 PMOS(VTO=2.23 W=19m L=2u KP=10.61u RS=20m)
.MODEL Dbody D(CJO=76.71p VJ=0.5918 M=0.3784 IS=116.4f N=1.013 RS=1.96 
+              TT=92.33n BV=60 IBV=10u)
.ENDS
.SUBCKT BST120_PH 1 2 3 
* 1=drain  2=gate  3=source
Cgs  2 3 35.9E-12
Cgd1 2 4 95.1E-12
Cgd2 1 4 8E-12
M1 1 2 3 3 MOST1
M2 4 2 1 3 MOST2
D1 1 3 Dbody
.MODEL MOST1 PMOS(LEVEL=3 VTO=-2.4 W=19m L=2u KP=10.61u RD=3.151 RS=20m)
.MODEL MOST2 PMOS(VTO=2.23 W=19m L=2u KP=10.61u RS=20m)
.MODEL Dbody D(CJO=76.71p VJ=0.5918 M=0.3784 IS=116.4f N=1.013 RS=1.96 
+              TT=92.33n BV=60 IBV=10u)
.ENDS
.SUBCKT BST122_PH 1 2 3 
* 1=drain  2=gate  3=source
Cgs  2 3 20.1E-12
Cgd1 2 4 57.1E-12
Cgd2 1 4 5E-12
M1 1 2 3 3 MOST1
M2 4 2 1 3 MOST2
D1 1 3 Dbody
.MODEL MOST1 PMOS(LEVEL=3 VTO=-2.3 W=7.6m L=2u KP=10.33u RD=4.014 RS=20m)
.MODEL MOST2 PMOS(VTO=2.43 W=7.6m L=2u KP=10.33u RS=20m)
.MODEL Dbody D(CJO=53.22E-12 VJ=0.5392 M=0.3583 IS=75.32E-15 N=1.016 RS=1.245 
+              TT=86.56n BV=60 IBV=10u)
.ENDS
.SUBCKT BST72A_PH   10 20 40 
* 10=drain  20=gate  40=source
M1   1  2  3  3  DMOS L=1U W=1U
RD  10  1  3.32
RS  30  3  .176
RG  20  2  1
CGS  2  3  22.5P
EGD 12  0  2  1  1
VFB 14  0  0
FFB  2  1  VFB  1
CGD 13 14  38P
R1  13  0  1
D1  12 13  DLIM
DDG 15 14  DCGD
R2  12 15  1
D2  15  0  DLIM
DSD  3 10  DSUB
LS  30 40  7.5N
.MODEL DMOS NMOS (LEVEL=3 THETA=80M VMAX=166K ETA=2M VTO=2 KP=.185)
.MODEL DCGD D (CJO=38P VJ=.6 M=.68)
.MODEL DSUB D (IS=1.24N N=1.5 RS=1.3 BV=80 CJO=29.8P VJ=.8 M=.42 TT=150N)
.MODEL DLIM D (IS=100U)
.ENDS
.SUBCKT BST82_PH   10 20 40 
* 10=drain  20=gate  40=source
M1   1  2  3  3  DMOS L=1U W=1U
RD  10  1  3.32
RS  30  3  .176
RG  20  2  1
CGS  2  3  22.5P
EGD 12  0  2  1  1
VFB 14  0  0
FFB  2  1  VFB  1
CGD 13 14  38P
R1  13  0  1
D1  12 13  DLIM
DDG 15 14  DCGD
R2  12 15  1
D2  15  0  DLIM
DSD  3 10  DSUB
LS  30 40  7.5N
.MODEL DMOS NMOS (LEVEL=3 THETA=80M VMAX=166K ETA=2M VTO=2 KP=.185)
.MODEL DCGD D (CJO=38P VJ=.6 M=.68)
.MODEL DSUB D (IS=1.24N N=1.5 RS=1.3 BV=80 CJO=29.8P VJ=.8 M=.42 TT=150N)
.MODEL DLIM D (IS=100U)
.ENDS
.SUBCKT PHB11N06LT_PH 1 2 3 
* 1=drain  2=gate  3=source
L1 1 11 3.5e-9
L2 2 22 7.5e-9
L3 3 33 7.5e-9
Cgs  6 33 311E-12
Cgd1 6 4 672E-12
Cgd2 11 4 35E-12
M1 5 6 33 33 MOST1
M2 4 6 5 33 MOST2
D1 33 12 Dbody
Rdiode 12 11 Rtemp 1e-6
Rdrain 5 11 Rtemp 78e-3
Rgate 22 6 35
.MODEL MOST1 NMOS (LEVEL=3 W=0.1 L=0.3e-6 Vto=1.99 Kp=1.7e-5 
+                          RS=0 RD=0 UO=650 VMAX=0 XJ=0.5E-6 KAPPA=10E-2 