
.SUBCKT BFG134_PH 4 5 6
*NODES            C B E
*SOT103
Q1 1 2 3 BFR134
L1 5 8 .64N
L2 4 1 .57N
L3 6 7 .40N
Le 3 7 .1N
Lb 8 2 .8N
CBE 8 7 241F
CCE 1 7 238F
CCB 8 1 12F
.MODEL  BFR134   NPN  IS = 6.2649E-015 BF = 142.485 NF = 1.0062 VAF = 44.85
+    IKF = 4.4719 ISE = 3.7927E-013 NE = 2.0772 BR = 9.1435 NR = 1.0554
+    VAR = 3 IKR = 3.625E-002 ISC = 8.321E-017 NC = 1.03925 RB = 4
+    IRB = 1E-006 RBM = 4 RE = 1.1986 RC = 1 EG = 1.11 XTI = 3
+    CJE = 6.937E-012 VJE = .6 MJE = .40733 TF = 1.1102E-011 XTF = 54.152
+    VTF = 5.75 ITF = .99804 PTF = -200 CJC = 2.1768E-012 VJC = .27814
+    MJC = .17232 XCJC = .13 TR = 2.1E-009 VJS = .75 FC = .600975
.ENDS


.SUBCKT BFG135_PH 4 5 6
*NODES            C B E
*SOT223A
Q1 1 2 3 BFR134
L1 5 8 .025N
L2 4 1 1.19N
L3 6 7 .60N
Le 3 7 .5N
Lb 8 2 1.5N
CBE 8 7 182F
CCE 1 7 249F
CCB 8 1 16F
.MODEL  BFR134   NPN  IS = 6.2649E-015 BF = 142.485 NF = 1.0062 VAF = 44.85
+    IKF = 4.4719 ISE = 3.7927E-013 NE = 2.0772 BR = 9.1435 NR = 1.0554
+    VAR = 3 IKR = 3.625E-002 ISC = 8.321E-017 NC = 1.03925 RB = 4
+    IRB = 1E-006 RBM = 4 RE = 1.1986 RC = 1 EG = 1.11 XTI = 3
+    CJE = 6.937E-012 VJE = .6 MJE = .40733 TF = 1.1102E-011 XTF = 54.152
+    VTF = 5.75 ITF = .99804 PTF = -200 CJC = 2.1768E-012 VJC = .27814
+    MJC = .17232 XCJC = .13 TR = 2.1E-009 VJS = .75 FC = .600975
.ENDS


.SUBCKT BFG195_PH 4 5 6
*NODES            C B E
*SOT103
Q1 1 2 3 BFQ195
L1 5 8 .64N
L2 4 1 .57N
L3 6 7 .40N
Le 3 7 .1N
Lb 8 2 .8N
CBE 8 7 241F
CCE 1 7 238F
CCB 8 1 12F
.MODEL  BFQ195   NPN  IS = 1.972E-015 BF = 150 NF = .990823 VAF = 54.723
+    IKF = 30 ISE = 4.782E-014 NE = 1.58 BR = 165.412 NR = .99399
+    VAR = 2.35124 IKR = 9.9675 ISC = 3.51E-015 NC = 1.12472 RB = 5
+    IRB = 1E-006 RBM = 5 RE = .36818 RC = .9372 EG = 1.11 XTI = 3
+    CJE = 3.388E-012 VJE = .6 MJE = .302953 TF = 1.10683E-011 XTF = 30.0256
+    VTF = 1.6495 ITF = .40199 CJC = 1.19014E-012 VJC = .160156
+    MJC = 8.94442E-002 XCJC = .13 TR = 2.14856E-009 VJS = .75 FC = .78594
.ENDS


.SUBCKT BFG197_PH 4 5 6
*NODES            C B E
*SOT143
Q1 1 2 3 BFQ195
L1 5 8 .12N
L2 4 1 .21N
L3 6 7 .06N
Le 3 7 .4N
Lb 8 2 .95N
CBE 8 7 84F
CCE 1 7 191F
CCB 8 1 17F
.MODEL  BFQ195   NPN  IS = 1.972E-015 BF = 150 NF = .990823 VAF = 54.723
+    IKF = 30 ISE = 4.782E-014 NE = 1.58 BR = 165.412 NR = .99399
+    VAR = 2.35124 IKR = 9.9675 ISC = 3.51E-015 NC = 1.12472 RB = 5
+    IRB = 1E-006 RBM = 5 RE = .36818 RC = .9372 EG = 1.11 XTI = 3
+    CJE = 3.388E-012 VJE = .6 MJE = .302953 TF = 1.10683E-011 XTF = 30.0256
+    VTF = 1.6495 ITF = .40199 CJC = 1.19014E-012 VJC = .160156
+    MJC = 8.94442E-002 XCJC = .13 TR = 2.14856E-009 VJS = .75 FC = .78594
.ENDS


.SUBCKT BFG197X_PH 4 5 6
*NODES             C B E
*SOT143X
Q1 1 2 3 BFQ195
L1 5 8 .12N
L2 4 1 .21N
L3 6 7 .06N
Le 3 7 .4N
Lb 8 2 .95N
CBE 8 7 84F
CCE 1 7 191F
CCB 8 1 17F
.MODEL  BFQ195   NPN  IS = 1.972E-015 BF = 150 NF = .990823 VAF = 54.723
+    IKF = 30 ISE = 4.782E-014 NE = 1.58 BR = 165.412 NR = .99399
+    VAR = 2.35124 IKR = 9.9675 ISC = 3.51E-015 NC = 1.12472 RB = 5
+    IRB = 1E-006 RBM = 5 RE = .36818 RC = .9372 EG = 1.11 XTI = 3
+    CJE = 3.388E-012 VJE = .6 MJE = .302953 TF = 1.10683E-011 XTF = 30.0256
+    VTF = 1.6495 ITF = .40199 CJC = 1.19014E-012 VJC = .160156
+    MJC = 8.94442E-002 XCJC = .13 TR = 2.14856E-009 VJS = .75 FC = .78594
.ENDS


.SUBCKT BFG197XR_PH 4 5 6
*NODES              C B E
*SOT143XR
Q1 1 2 3 BFQ195
L1 5 8 .12N
L2 4 1 .21N
L3 6 7 .06N
Le 3 7 .4N
Lb 8 2 .95N
CBE 8 7 84F
CCE 1 7 191F
CCB 8 1 17F
.MODEL  BFQ195   NPN  IS = 1.972E-015 BF = 150 NF = .990823 VAF = 54.723
+    IKF = 30 ISE = 4.782E-014 NE = 1.58 BR = 165.412 NR = .99399
+    VAR = 2.35124 IKR = 9.9675 ISC = 3.51E-015 NC = 1.12472 RB = 5
+    IRB = 1E-006 RBM = 5 RE = .36818 RC = .9372 EG = 1.11 XTI = 3
+    CJE = 3.388E-012 VJE = .6 MJE = .302953 TF = 1.10683E-011 XTF = 30.0256
+    VTF = 1.6495 ITF = .40199 CJC = 1.19014E-012 VJC = .160156
+    MJC = 8.94442E-002 XCJC = .13 TR = 2.14856E-009 VJS = .75 FC = .78594
.ENDS


.SUBCKT BFG198_PH 4 5 6
*NODES            C B E
*SOT223C
Q1 1 2 3 BFQ195
L1 5 8 .025N
L2 4 1 1.19N
L3 6 7 .60N
Le 3 7 .2N
Lb 8 2 1.5N
CBE 8 7 182F
CCE 1 7 249F
CCB 8 1 16F
.MODEL  BFQ195   NPN  IS = 1.972E-015 BF = 150 NF = .990823 VAF = 54.723
+    IKF = 30 ISE = 4.782E-014 NE = 1.58 BR = 165.412 NR = .99399
+    VAR = 2.35124 IKR = 9.9675 ISC = 3.51E-015 NC = 1.12472 RB = 5
+    IRB = 1E-006 RBM = 5 RE = .36818 RC = .9372 EG = 1.11 XTI = 3
+    CJE = 3.388E-012 VJE = .6 MJE = .302953 TF = 1.10683E-011 XTF = 30.0256
+    VTF = 1.6495 ITF = .40199 CJC = 1.19014E-012 VJC = .160156
+    MJC = 8.94442E-002 XCJC = .13 TR = 2.14856E-009 VJS = .75 FC = .78594
.ENDS


.SUBCKT BFG23_PH 4 5 6
*NODES           C B E
*SOT103
Q1 1 2 3 BFT93
L1 5 8 .64N
L2 4 1 .57N
L3 6 7 .40N
Le 3 7 .1N
Lb 8 2 .8N
CBE 8 7 241F
CCE 1 7 238F
CCB 8 1 12F
.MODEL  BFT93   PNP  IS = 8.3513E-016 BF = 48.565 NF = 1.00043 VAF = 19.012
+    IKF = .146824 ISE = 9.0946E-014 NE = 1.7493 BR = 12.183 NR = .99769
+    VAR = 3.3749 IKR = 6.7427E-003 ISC = 2.343E-014 NC = 1.4499 RB = 10
+    IRB = 1E-006 RBM = 10 RE = .2 RC = 3.8 EG = 1.11 XTI = 3
+    CJE = 1.57034E-012 VJE = .6 MJE = .3822 TF = 1.4853E-011 XTF = 2.2097
+    VTF = 2.9899 ITF = 1.4372E-002 CJC = 1.9953E-012 VJC = .5845
+    MJC = .28132 XCJC = .12 TR = 3E-009 VJS = .75 FC = .811678
.ENDS


.SUBCKT BFG25AX_PH 4 5 6
*NODES             C B E
*SOT143X
Q1 1 2 3 BFT25A
L1 5 8 .12N
L2 4 1 .21N
L3 6 7 .06N
Le 3 7 .4N
Lb 8 2 .95N
CBE 8 7 84F
CCE 1 7 191F
CCB 8 1 17F
.MODEL  BFT25A   NPN  IS = 1.3775E-017 BF = 85.654 NF = .9799 VAF = 50.805
+    IKF = 10 ISE = 2.1998E-015 NE = 1.85715 BR = 16.975 NR = .98551
+    VAR = 2.49144 IKR = .188014 ISC = 2.0516E-016 NC = 1.1073 RB = 80
+    IRB = 1E-006 RBM = 80 RE = 7.911 RC = 5.3 EG = 1.11 XTI = 3
+    CJE = 2.2303E-013 VJE = .6697 MJE = 5.9664E-002 TF = 5.1121E-012
+    XTF = 7.9092 VTF = 1.3388 ITF = 5.6626E-003 PTF = 15.3714
+    CJC = 2.2902E-013 VJC = .394786 MJC = 4.3323E-002 XCJC = .05
+    TR = 1.3269E-008 VJS = .75 FC = .987824
.ENDS


.SUBCKT BFG31_PH 4 5 6
*NODES           C B E
*SOT223C
Q1 1 2 3 BFQ32
L1 5 8 .025N
L2 4 1 1.19N
L3 6 7 .60N
Le 3 7 .2N
Lb 8 2 1.5N
CBE 8 7 182F
CCE 1 7 249F
CCB 8 1 16F
.MODEL  BFQ32   PNP  IS = 1.04E-014 BF = 113.265 NF = 1.0122 VAF = 23.6312
+    IKF = .505043 ISE = 8.713E-014 NE = 1.5733 BR = 28.169 NR = 1.0039
+    VAR = 1.4144 IKR = 4.169E-003 ISC = 1.044E-011 NC = 1.6699 RB = 1
+    IRB = 1E-006 RBM = 1 RE = .3 RC = 2.42 EG = 1.11 XTI = 3 CJE = 3.954E-012
+    VJE = .6 MJE = .44867 TF = 3E-012 XTF = 18.687 VTF = 8.343 ITF = .22248
+    CJC = 3.399E-012 VJC = .48814 MJC = .27749 XCJC = .18 TR = 2.571E-009
+    VJS = .75 FC = .90417
.ENDS


.SUBCKT BFG32_PH 4 5 6
*NODES           C B E
*SOT103
Q1 1 2 3 BFQ32
L1 5 8 .64N
L2 4 1 .57N
L3 6 7 .40N
Le 3 7 .1N
Lb 8 2 .8N
CBE 8 7 241F
CCE 1 7 238F
CCB 8 1 12F
.MODEL  BFQ32   PNP  IS = 1.04E-014 BF = 113.265 NF = 1.0122 VAF = 23.6312
+    IKF = .505043 ISE = 8.713E-014 NE = 1.5733 BR = 28.169 NR = 1.0039
+    VAR = 1.4144 IKR = 4.169E-003 ISC = 1.044E-011 NC = 1.6699 RB = 1
+    IRB = 1E-006 RBM = 1 RE = .3 RC = 2.42 EG = 1.11 XTI = 3 CJE = 3.954E-012
+    VJE = .6 MJE = .44867 TF = 3E-012 XTF = 18.687 VTF = 8.343 ITF = .22248
+    CJC = 3.399E-012 VJC = .48814 MJC = .27749 XCJC = .18 TR = 2.571E-009
+    VJS = .75 FC = .90417
.ENDS


.SUBCKT BFG33_PH 4 5 6
*NODES           C B E
*SOT143
Q1 1 2 3 BFQ33
L1 5 8 .12N
L2 4 1 .21N
L3 6 7 .06N
Le 3 7 .4N
Lb 8 2 .95N
CBE 8 7 84F
CCE 1 7 191F
CCB 8 1 17F
.MODEL  BFQ33   NPN  IS = 3.581E-016 BF = 105 NF = 1.0023 VAF = 19 IKF = .08
+    ISE = 1.2261E-013 NE = 1.8735 BR = 15 NR = .997998 VAR = 2.164
+    IKR = 9.8395 ISC = 1E-014 NC = 1.3943 RB = 40 IRB = 1E-006 RBM = 40
+    RE = 1.298 RC = 4.32 EG = 1.11 XTI = 3 CJE = 2.656E-013 VJE = .6
+    MJE = .3085 TF = 6.4065E-012 XTF = 3.7749 VTF = 1.5102 ITF = 3.3547E-002
+    CJC = 2.1115E-013 VJC = .3158 MJC = 5.836E-002 XCJC = .21
+    TR = 8.4632E-010 VJS = .75 FC = .882234
.ENDS


.SUBCKT BFG33X_PH 4 5 6
*NODES            C B E
*SOT143X
Q1 1 2 3 BFQ33
L1 5 8 .12N
L2 4 1 .21N
L3 6 7 .06N
Le 3 7 .4N
Lb 8 2 .95N
CBE 8 7 84F
CCE 1 7 191F
CCB 8 1 17F
.MODEL  BFQ33   NPN  IS = 3.581E-016 BF = 105 NF = 1.0023 VAF = 19 IKF = .08
+    ISE = 1.2261E-013 NE = 1.8735 BR = 15 NR = .997998 VAR = 2.164
+    IKR = 9.8395 ISC = 1E-014 NC = 1.3943 RB = 40 IRB = 1E-006 RBM = 40
+    RE = 1.298 RC = 4.32 EG = 1.11 XTI = 3 CJE = 2.656E-013 VJE = .6
+    MJE = .3085 TF = 6.4065E-012 XTF = 3.7749 VTF = 1.5102 ITF = 3.3547E-002
+    CJC = 2.1115E-013 VJC = .3158 MJC = 5.836E-002 XCJC = .21
+    TR = 8.4632E-010 VJS = .75 FC = .882234
.ENDS


.SUBCKT BFG34_PH 4 5 6
*NODES           C B E
*SOT103
Q1 1 2 3 BFQ34
L1 5 8 .64N
L2 4 1 .57N
L3 6 7 .40N
Le 3 7 .1N
Lb 8 2 .8N
CBE 8 7 241F
CCE 1 7 238F
CCB 8 1 12F
.MODEL  BFQ34   NPN  IS = 4.755E-015 BF = 42.0713 NF = 1.002 VAF = 50.475
+    IKF = 64.518 ISE = 1.6401E-011 NE = 2.0336 BR = 10 NR = 1.0034
+    VAR = 3.8833 IKR = .2 ISC = 1.8532E-014 NC = 1.1744 RB = 4 IRB = 1E-006
+    RBM = 4 RE = 1.04474 RC = 2.6 EG = 1.11 XTI = 3 CJE = 1.0217E-011
+    VJE = .6 MJE = .30493 TF = 1.938E-011 XTF = .280244 VTF = .05
+    ITF = 5.892E-002 PTF =-100 CJC = 2.9052E-012 VJC = .40632
+    MJC = .26721 XCJC = .25 TR = 8.593E-009 VJS = .75 FC = .71251
.ENDS


.SUBCKT BFG35_PH 4 5 6
*NODES           C B E
*SOT223C
Q1 1 2 3 BFQ34
L1 5 8 .025N
L2 4 1 1.19N
L3 6 7 .60N
Le 3 7 .2N
Lb 8 2 1.5N
CBE 8 7 182F
CCE 1 7 249F
CCB 8 1 16F
.MODEL  BFQ34   NPN  IS = 4.755E-015 BF = 42.0713 NF = 1.002 VAF = 50.475
+    IKF = 64.518 ISE = 1.6401E-011 NE = 2.0336 BR = 10 NR = 1.0034
+    VAR = 3.8833 IKR = .2 ISC = 1.8532E-014 NC = 1.1744 RB = 4 IRB = 1E-006
+    RBM = 4 RE = 1.04474 RC = 2.6 EG = 1.11 XTI = 3 CJE = 1.0217E-011
+    VJE = .6 MJE = .30493 TF = 1.938E-011 XTF = .280244 VTF = .05
+    ITF = 5.892E-002 PTF =-100 CJC = 2.9052E-012 VJC = .40632
+    MJC = .26721 XCJC = .25 TR = 8.593E-009 VJS = .75 FC = .71251
.ENDS


.SUBCKT BFG505_PH 4 5 6
*NODES            C B E
*SOT143
Q1 1 2 3 BFR505
L1 5 8 .12N
L2 4 1 .21N
L3 6 7 .06N
Le 3 7 .4N
Lb 8 2 .95N
CBE 8 7 84F
CCE 1 7 191F
CCB 8 1 17F
.MODEL  BFR505   NPN  IS = 1.342E-016 BF = 180 NF = .98829 VAF = 38.349
+    IKF = .15 ISE = 2.782E-014 NE = 2.0515 BR = 55.1997 NR = .9822
+    VAR = 2.45944 IKR = 2.921E-003 ISC = 1.745E-017 NC = 1.06245 RB = 20
+    IRB = 1E-006 RBM = 20 RE = 1.1719 RC = 4.35 EG = 1.11 XTI = 3
+    CJE = 2.8473E-013 VJE = .6 MJE = .303697 TF = 7.0376E-012 XTF = 12.346
+    VTF = 1.7019 ITF = 3.065E-002 CJC = 2.424E-013 VJC = .18862
+    MJC = 4.1498E-002 XCJC = .13 TR = 1.332E-009 VJS = .75 FC = .89744
.ENDS


.SUBCKT BFG505X_PH 4 5 6
*NODES          C B E
*SOT143X
Q1 1 2 3 BFR505
L1 5 8 .12N
L2 4 1 .21N
L3 6 7 .06N
Le 3 7 .4N
Lb 8 2 .95N
CBE 8 7 84F
CCE 1 7 191F
CCB 8 1 17F
.MODEL  BFR505   NPN  IS = 1.342E-016 BF = 180 NF = .98829 VAF = 38.349
+    IKF = .15 ISE = 2.782E-014 NE = 2.0515 BR = 55.1997 NR = .9822
+    VAR = 2.45944 IKR = 2.921E-003 ISC = 1.745E-017 NC = 1.06245 RB = 20
+    IRB = 1E-006 RBM = 20 RE = 1.1719 RC = 4.35 EG = 1.11 XTI = 3
+    CJE = 2.8473E-013 VJE = .6 MJE = .303697 TF = 7.0376E-012 XTF = 12.346
+    VTF = 1.7019 ITF = 3.065E-002 CJC = 2.424E-013 VJC = .18862
+    MJC = 4.1498E-002 XCJC = .13 TR = 1.332E-009 VJS = .75 FC = .89744
.ENDS


.SUBCKT BFG505XR_PH 4 5 6
*NODES              C B E
*SOT143XR
Q1 1 2 3 BFR505
L1 5 8 .12N
L2 4 1 .21N
L3 6 7 .06N
Le 3 7 .4N
Lb 8 2 .95N
CBE 8 7 84F
CCE 1 7 191F
CCB 8 1 17F
.MODEL  BFR505   NPN  IS = 1.342E-016 BF = 180 NF = .98829 VAF = 38.349
+    IKF = .15 ISE = 2.782E-014 NE = 2.0515 BR = 55.1997 NR = .9822
+    VAR = 2.45944 IKR = 2.921E-003 ISC = 1.745E-017 NC = 1.06245 RB = 20
+    IRB = 1E-006 RBM = 20 RE = 1.1719 RC = 4.35 EG = 1.11 XTI = 3
+    CJE = 2.8473E-013 VJE = .6 MJE = .303697 TF = 7.0376E-012 XTF = 12.346
+    VTF = 1.7019 ITF = 3.065E-002 CJC = 2.424E-013 VJC = .18862
+    MJC = 4.1498E-002 XCJC = .13 TR = 1.332E-009 VJS = .75 FC = .89744
.ENDS


.SUBCKT BFG51_PH 4 5 6
*NODES           C B E
*SOT103
Q1 1 2 3 BFT92
L1 5 8 .64N
L2 4 1 .57N
L3 6 7 .40N
Le 3 7 .1N
Lb 8 2 .8N
CBE 8 7 241F
CCE 1 7 238F
CCB 8 1 12F
.MODEL  BFT92   PNP  IS = 4.3756E-016 BF = 33.5815 NF = 1.0097 VAF = 23.3946
+    IKF = 9.9538E-002 ISE = 8.7054E-014 NE = 1.94395 BR = 4.9472
+    NR = 1.00254 VAR = 3.90385 IKR = 5.2816E-003 ISC = 3.5886E-014
+    NC = 1.3933 RB = 5 IRB = 1E-006 RBM = 5 RE = 1 RC = 10 EG = 1.11
+    XTI = 3 CJE = 7.4666E-013 VJE = .6 MJE = .35683 TF = 1.7492E-011
+    XTF = 1.3546 VTF = .155654 ITF = 1E-003 PTF = 45 CJC = 9.371E-013
+    VJC = .396455 MJC = .19995 XCJC = .106 TR = 8.422E-009
+    VJS = .75 FC = .767856
.ENDS


.SUBCKT BFG520_PH 4 5 6
*NODES            C B E
*SOT143
Q1 1 2 3 BFR520
L1 5 8 .12N
L2 4 1 .21N
L3 6 7 .06N
Le 3 7 .4N
Lb 8 2 .95N
CBE 8 7 84F
CCE 1 7 191F
CCB 8 1 17F
.MODEL  BFR520   NPN  IS = 1.017E-015 BF = 220.18 NF = 1.001 VAF = 48.062
+    IKF = .51004 ISE = 2.83095E-013 NE = 2.0357 BR = 100.714 NR = .98811
+    VAR = 1.6929 IKR = 2.353E-003 ISC = 2.449E-017 NC = 1.0226 RB = 10
+    IRB = 1E-006 RBM = 10 RE = .77535 RC = 2.21 EG = 1.11 XTI = 3
+    CJE = 1.2455E-012 VJE = .6 MJE = .25815 TF = 8.616E-012 XTF = 6.7887
+    VTF = 1.4147 ITF = .110365 PTF = 45.02 CJC = 4.4765E-013 VJC = .18923
+    MJC = 7.052E-002 XCJC = .13 TR = 5.4375E-010 VJS = .75 FC = .7803
.ENDS


.SUBCKT BFG520X_PH 4 5 6
*NODES             C B E
*SOT143X
Q1 1 2 3 BFR520
L1 5 8 .12N
L2 4 1 .21N
L3 6 7 .06N
Le 3 7 .4N
Lb 8 2 .95N
CBE 8 7 84F
CCE 1 7 191F
CCB 8 1 17F
.MODEL  BFR520   NPN  IS = 1.017E-015 BF = 220.18 NF = 1.001 VAF = 48.062
+    IKF = .51004 ISE = 2.83095E-013 NE = 2.0357 BR = 100.714 NR = .98811
+    VAR = 1.6929 IKR = 2.353E-003 ISC = 2.449E-017 NC = 1.0226 RB = 10
+    IRB = 1E-006 RBM = 10 RE = .77535 RC = 2.21 EG = 1.11 XTI = 3
+    CJE = 1.2455E-012 VJE = .6 MJE = .25815 TF = 8.616E-012 XTF = 6.7887
+    VTF = 1.4147 ITF = .110365 PTF = 45.02 CJC = 4.4765E-013 VJC = .18923
+    MJC = 7.052E-002 XCJC = .13 TR = 5.4375E-010 VJS = .75 FC = .7803
.ENDS


.SUBCKT BFG520XR_PH 4 5 6
*NODES              C B E
*SOT143XR
Q1 1 2 3 BFR520
L1 5 8 .12N
L2 4 1 .21N
L3 6 7 .06N
Le 3 7 .4N
Lb 8 2 .95N
CBE 8 7 84F
CCE 1 7 191F
CCB 8 1 17F
.MODEL  BFR520   NPN  IS = 1.017E-015 BF = 220.18 NF = 1.001 VAF = 48.062
+    IKF = .51004 ISE = 2.83095E-013 NE = 2.0357 BR = 100.714 NR = .98811
+    VAR = 1.6929 IKR = 2.353E-003 ISC = 2.449E-017 NC = 1.0226 RB = 10
+    IRB = 1E-006 RBM = 10 RE = .77535 RC = 2.21 EG = 1.11 XTI = 3
+    CJE = 1.2455E-012 VJE = .6 MJE = .25815 TF = 8.616E-012 XTF = 6.7887
+    VTF = 1.4147 ITF = .110365 PTF = 45.02 CJC = 4.4765E-013 VJC = .18923
+    MJC = 7.052E-002 XCJC = .13 TR = 5.4375E-010 VJS = .75 FC = .7803
.ENDS

.SUBCKT BFG540_PH 4 5 6
*NODES            C B E
*SOT143
Q1 1 2 3 BFR540
L1 5 8 .12N
L2 4 1 .21N
L3 6 7 .06N
Le 3 7 .4N
Lb 8 2 .95N
CBE 8 7 84F
CCE 1 7 191F
CCB 8 1 17F
.MODEL  BFR540   NPN  IS = 1.045E-015 BF = 184.36 NF = .98177 VAF = 41.698
+    IKF = 10 ISE = 2.3244E-013 NE = 2.0283 BR = 43.992 NR = .99253
+    VAR = 2.09773 IKR = .166296 ISC = 1.2985E-016 NC = 1.0649 RB = 5
+    IRB = 1E-006 RBM = 5 RE = .35355 RC = 1.34 EG = 1.11 XTI = 3
+    CJE = 1.97895E-012 VJE = .6 MJE = .332695 TF = 7.4572E-012 XTF = 11.407
+    VTF = 3.15854 ITF = .15692 CJC = 7.937E-013 VJC = .18552
+    MJC = 8.4166E-002 XCJC = .15 TR = 1.598E-009 VJS = .75 FC = .814755
.ENDS


.SUBCKT BFG540X_PH 4 5 6
*NODES             C B E
*SOT143X
Q1 1 2 3 BFR540
L1 5 8 .12N
L2 4 1 .21N
L3 6 7 .06N
Le 3 7 .4N
Lb 8 2 .95N
CBE 8 7 84F
CCE 1 7 191F
CCB 8 1 17F
.MODEL  BFR540   NPN  IS = 1.045E-015 BF = 184.36 NF = .98177 VAF = 41.698
+    IKF = 10 ISE = 2.3244E-013 NE = 2.0283 BR = 43.992 NR = .99253
+    VAR = 2.09773 IKR = .166296 ISC = 1.2985E-016 NC = 1.0649 RB = 5
+    IRB = 1E-006 RBM = 5 RE = .35355 RC = 1.34 EG = 1.11 XTI = 3
+    CJE = 1.97895E-012 VJE = .6 MJE = .332695 TF = 7.4572E-012 XTF = 11.407
+    VTF = 3.15854 ITF = .15692 CJC = 7.937E-013 VJC = .18552
+    MJC = 8.4166E-002 XCJC = .15 TR = 1.598E-009 VJS = .75 FC = .814755
.ENDS


.SUBCKT BFG540XR_PH 4 5 6
*NODES              C B E
*SOT143XR
Q1 1 2 3 BFR540
L1 5 8 .12N
L2 4 1 .21N
L3 6 7 .06N
Le 3 7 .4N
Lb 8 2 .95N
CBE 8 7 84F
CCE 1 7 191F
CCB 8 1 17F
.MODEL  BFR540   NPN  IS = 1.045E-015 BF = 184.36 NF = .98177 VAF = 41.698
+    IKF = 10 ISE = 2.3244E-013 NE = 2.0283 BR = 43.992 NR = .99253
+    VAR = 2.09773 IKR = .166296 ISC = 1.2985E-016 NC = 1.0649 RB = 5
+    IRB = 1E-006 RBM = 5 RE = .35355 RC = 1.34 EG = 1.11 XTI = 3
+    CJE = 1.97895E-012 VJE = .6 MJE = .332695 TF = 7.4572E-012 XTF = 11.407
+    VTF = 3.15854 ITF = .15692 CJC = 7.937E-013 VJC = .18552
+    MJC = 8.4166E-002 XCJC = .15 TR = 1.598E-009 VJS = .75 FC = .814755
.ENDS


.SUBCKT BFG541_PH 4 5 6
*NODES            C B E
*SOT223A
Q1 1 2 3 BFR540
L1 5 8 .025N
L2 4 1 1.19N
L3 6 7 .60N
Le 3 7 .5N
Lb 8 2 1.5N
CBE 8 7 182F
CCE 1 7 249F
CCB 8 1 16F
.MODEL  BFR540   NPN  IS = 1.045E-015 BF = 184.36 NF = .98177 VAF = 41.698
+    IKF = 10 ISE = 2.3244E-013 NE = 2.0283 BR = 43.992 NR = .99253
+    VAR = 2.09773 IKR = .166296 ISC = 1.2985E-016 NC = 1.0649 RB = 5
+    IRB = 1E-006 RBM = 5 RE = .35355 RC = 1.34 EG = 1.11 XTI = 3
+    CJE = 1.97895E-012 VJE = .6 MJE = .332695 TF = 7.4572E-012 XTF = 11.407
+    VTF = 3.15854 ITF = .15692 CJC = 7.937E-013 VJC = .18552
+    MJC = 8.4166E-002 XCJC = .15 TR = 1.598E-009 VJS = .75 FC = .814755
.ENDS


.SUBCKT BFG65_PH 4 5 6
*NODES           C B E
*SOT103
Q1 1 2 3 BFQ65
L1 5 8 .64N
L2 4 1 .57N
L3 6 7 .40N
Le 3 7 .1N
Lb 8 2 .8N
CBE 8 7 241F
CCE 1 7 238F
CCB 8 1 12F
.MODEL  BFQ65   NPN  IS = 5.5644E-016 BF = 170 NF = .994874 VAF = 48.033
+    IKF = .91818 ISE = 1.048E-014 NE = 1.4795 BR = 142.11 NR = .99413
+    VAR = 2.5556 IKR = 9.6328 ISC = 4.3825E-016 NC = 1.0895 RB = 10
+    IRB = 1E-006 RBM = 10 RE = .65597 RC = 2 EG = 1.11 XTI = 3
+    CJE = 1.1377E-012 VJE = .6 MJE = .24946 TF = 1.198E-011 XTF = 25.999
+    VTF = 1.2231 ITF = .19738 PTF = 10.035 CJC = 5.1598E-013 VJC = .15587
+    MJC = 5.6023E-002 XCJC = .13 TR = 1.878E-009 VJS = .75 FC = .87
.ENDS


.SUBCKT BFG67_PH 4 5 6
*NODES           C B E
*SOT143
Q1 1 2 3 BFQ65
L1 5 8 .12N
L2 4 1 .21N
L3 6 7 .06N
Le 3 7 .4N
Lb 8 2 .95N
CBE 8 7 84F
CCE 1 7 191F
CCB 8 1 17F
.MODEL  BFQ65   NPN  IS = 5.5644E-016 BF = 170 NF = .994874 VAF = 48.033
+    IKF = .91818 ISE = 1.048E-014 NE = 1.4795 BR = 142.11 NR = .99413
+    VAR = 2.5556 IKR = 9.6328 ISC = 4.3825E-016 NC = 1.0895 RB = 10
+    IRB = 1E-006 RBM = 10 RE = .65597 RC = 2 EG = 1.11 XTI = 3
+    CJE = 1.1377E-012 VJE = .6 MJE = .24946 TF = 1.198E-011 XTF = 25.999
+    VTF = 1.2231 ITF = .19738 PTF = 10.035 CJC = 5.1598E-013 VJC = .15587
+    MJC = 5.6023E-002 XCJC = .13 TR = 1.878E-009 VJS = .75 FC = .87
.ENDS


.SUBCKT BFG67R_PH 4 5 6
*NODES            C B E
*SOT143R
Q1 1 2 3 BFQ65
L1 5 8 .12N
L2 4 1 .21N
L3 6 7 .06N
Le 3 7 .4N
Lb 8 2 .95N
CBE 8 7 84F
CCE 1 7 191F
CCB 8 1 17F
.MODEL  BFQ65   NPN  IS = 5.5644E-016 BF = 170 NF = .994874 VAF = 48.033
+    IKF = .91818 ISE = 1.048E-014 NE = 1.4795 BR = 142.11 NR = .99413
+    VAR = 2.5556 IKR = 9.6328 ISC = 4.3825E-016 NC = 1.0895 RB = 10
+    IRB = 1E-006 RBM = 10 RE = .65597 RC = 2 EG = 1.11 XTI = 3
+    CJE = 1.1377E-012 VJE = .6 MJE = .24946 TF = 1.198E-011 XTF = 25.999
+    VTF = 1.2231 ITF = .19738 PTF = 10.035 CJC = 5.1598E-013 VJC = .15587
+    MJC = 5.6023E-002 XCJC = .13 TR = 1.878E-009 VJS = .75 FC = .87
.ENDS


.SUBCKT BFG67X_PH 4 5 6
*NODES            C B E
*SOT143X
Q1 1 2 3 BFQ65
L1 5 8 .12N
L2 4 1 .21N
L3 6 7 .06N
Le 3 7 .4N
Lb 8 2 .95N
CBE 8 7 84F
CCE 1 7 191F
CCB 8 1 17F
.MODEL  BFQ65   NPN  IS = 5.5644E-016 BF = 170 NF = .994874 VAF = 48.033
+    IKF = .91818 ISE = 1.048E-014 NE = 1.4795 BR = 142.11 NR = .99413
+    VAR = 2.5556 IKR = 9.6328 ISC = 4.3825E-016 NC = 1.0895 RB = 10
+    IRB = 1E-006 RBM = 10 RE = .65597 RC = 2 EG = 1.11 XTI = 3
+    CJE = 1.1377E-012 VJE = .6 MJE = .24946 TF = 1.198E-011 XTF = 25.999
+    VTF = 1.2231 ITF = .19738 PTF = 10.035 CJC = 5.1598E-013 VJC = .15587
+    MJC = 5.6023E-002 XCJC = .13 TR = 1.878E-009 VJS = .75 FC = .87
.ENDS


.SUBCKT BFG67XR_PH 4 5 6
*NODES             C B E
*SOT143XR
Q1 1 2 3 BFQ65
L1 5 8 .12N
L2 4 1 .21N
L3 6 7 .06N
Le 3 7 .4N
Lb 8 2 .95N
CBE 8 7 84F
CCE 1 7 191F
CCB 8 1 17F
.MODEL  BFQ65   NPN  IS = 5.5644E-016 BF = 170 NF = .994874 VAF = 48.033
+    IKF = .91818 ISE = 1.048E-014 NE = 1.4795 BR = 142.11 NR = .99413
+    VAR = 2.5556 IKR = 9.6328 ISC = 4.3825E-016 NC = 1.0895 RB = 10
+    IRB = 1E-006 RBM = 10 RE = .65597 RC = 2 EG = 1.11 XTI = 3
+    CJE = 1.1377E-012 VJE = .6 MJE = .24946 TF = 1.198E-011 XTF = 25.999
+    VTF = 1.2231 ITF = .19738 PTF = 10.035 CJC = 5.1598E-013 VJC = .15587
+    MJC = 5.6023E-002 XCJC = .13 TR = 1.878E-009 VJS = .75 FC = .87
.ENDS


.SUBCKT BFG90A_PH 4 5 6
*NODES            C B E
*SOT103
Q1 1 2 3 BFR90A
L1 5 8 .64N
L2 4 1 .57N
L3 6 7 .40N
Le 3 7 .1N
Lb 8 2 .8N
CBE 8 7 241F
CCE 1 7 238F
CCB 8 1 12F
.MODEL  BFR90A   NPN  IS = 4.1188E-016 BF = 102.64 NF = .99728 VAF = 62.672
+    IKF = 3.20054 ISE = 4.0106E-015 NE = 1.577 BR = 18.1086 NR = .9962
+    VAR = 3.36915 IKR = 1.28155 ISC = 2.799E-016 NC = 1.07543 RB = 10
+    IRB = 1E-006 RBM = 10 RE = 1.1645 RC = 2.32 EG = 1.10 XTI = 3
+    CJE = 8.905E-013 VJE = .6 MJE = .25857 TF = 1.5497E-011 XTF = 39.14
+    VTF = 2.1528 ITF = .213776 CJC = 5.4656E-013 VJC = .38082 MJC = .202935
+    XCJC = .15 TR = 5.61796E-009 VJS = .75 FC = .85
.ENDS


.SUBCKT BFG91A_PH 4 5 6
*NODES            C B E
*SOT103
Q1 1 2 3 BFR91A
L1 5 8 .64N
L2 4 1 .57N
L3 6 7 .40N
Le 3 7 .1N
Lb 8 2 .8N
CBE 8 7 241F
CCE 1 7 238F
CCB 8 1 12F
.MODEL  BFR91A   NPN  IS = 1.3287E-015 BF = 102 NF = 1.00025 VAF = 51.9033
+    IKF = 8.1551 ISE = 1.3903E-014 NE = 1.5129 BR = 17.6953 NR = .99404
+    VAR = 3.2803 IKR = 10 ISC = 1.04297E-015 NC = 1.1899 RB = 10
+    IRB = 1E-006 RBM = 10 RE = .76364 RC = 9 EG = 1.11 XTI = 3
+    CJE = 2.0322E-012 VJE = .6 MJE = .290076 TF = 6.558E-012 XTF = 38.975
+    VTF = 10.931 ITF = .52108 CJC = 1.00353E-012 VJC = .34081 MJC = .19422
+    XCJC = .12 TR = 3.073E-009 VJS = .75 FC = .8
.ENDS


.SUBCKT BFG92A_PH 4 5 6
*NODES          C B E
*SOT143
Q1 1 2 3 BFR90A
L1 5 8 .12N
L2 4 1 .21N
L3 6 7 .06N
Le 3 7 .4N
Lb 8 2 .95N
CBE 8 7 84F
CCE 1 7 191F
CCB 8 1 17F
.MODEL  BFR90A   NPN  IS = 4.1188E-016 BF = 102.64 NF = .99728 VAF = 62.672
+    IKF = 3.20054 ISE = 4.0106E-015 NE = 1.577 BR = 18.1086 NR = .9962
+    VAR = 3.36915 IKR = 1.28155 ISC = 2.799E-016 NC = 1.07543 RB = 10
+    IRB = 1E-006 RBM = 10 RE = 1.1645 RC = 2.32 EG = 1.10 XTI = 3
+    CJE = 8.905E-013 VJE = .6 MJE = .25857 TF = 1.5497E-011 XTF = 39.14
+    VTF = 2.1528 ITF = .213776 CJC = 5.4656E-013 VJC = .38082 MJC = .202935
+    XCJC = .15 TR = 5.61796E-009 VJS = .75 FC = .85
.ENDS


.SUBCKT BFG92AX_PH 4 5 6
*NODES             C B E
*SOT143X
Q1 1 2 3 BFR90A
L1 5 8 .12N
L2 4 1 .21N
L3 6 7 .06N
Le 3 7 .4N
Lb 8 2 .95N
CBE 8 7 84F
CCE 1 7 191F
CCB 8 1 17F
.MODEL  BFR90A   NPN  IS = 4.1188E-016 BF = 102.64 NF = .99728 VAF = 62.672
+    IKF = 3.20054 ISE = 4.0106E-015 NE = 1.577 BR = 18.1086 NR = .9962
+    VAR = 3.36915 IKR = 1.28155 ISC = 2.799E-016 NC = 1.07543 RB = 10
+    IRB = 1E-006 RBM = 10 RE = 1.1645 RC = 2.32 EG = 1.10 XTI = 3
+    CJE = 8.905E-013 VJE = .6 MJE = .25857 TF = 1.5497E-011 XTF = 39.14
+    VTF = 2.1528 ITF = .213776 CJC = 5.4656E-013 VJC = .38082 MJC = .202935
+    XCJC = .15 TR = 5.61796E-009 VJS = .75 FC = .85
.ENDS


.SUBCKT BFG92AXR_PH 4 5 6
*NODES              C B E
*SOT143XR
Q1 1 2 3 BFR90A
L1 5 8 .12N
L2 4 1 .21N
L3 6 7 .06N
Le 3 7 .4N
Lb 8 2 .95N
CBE 8 7 84F
CCE 1 7 191F
CCB 8 1 17F
.MODEL  BFR90A   NPN  IS = 4.1188E-016 BF = 102.64 NF = .99728 VAF = 62.672
+    IKF = 3.20054 ISE = 4.0106E-015 NE = 1.577 BR = 18.1086 NR = .9962
+    VAR = 3.36915 IKR = 1.28155 ISC = 2.799E-016 NC = 1.07543 RB = 10
+    IRB = 1E-006 RBM = 10 RE = 1.1645 RC = 2.32 EG = 1.10 XTI = 3
+    CJE = 8.905E-013 VJE = .6 MJE = .25857 TF = 1.5497E-011 XTF = 39.14
+    VTF = 2.1528 ITF = .213776 CJC = 5.4656E-013 VJC = .38082 MJC = .202935
+    XCJC = .15 TR = 5.61796E-009 VJS = .75 FC = .85
.ENDS


.SUBCKT BFG93A_PH 4 5 6
*NODES            C B E
*SOT143
Q1 1 2 3 BFR91A
L1 5 8 .12N
L2 4 1 .21N
L3 6 7 .06N
Le 3 7 .4N
Lb 8 2 .95N
CBE 8 7 84F
CCE 1 7 191F
CCB 8 1 17F
.MODEL  BFR91A   NPN  IS = 1.3287E-015 BF = 102 NF = 1.00025 VAF = 51.9033
+    IKF = 8.1551 ISE = 1.3903E-014 NE = 1.5129 BR = 17.6953 NR = .99404
+    VAR = 3.2803 IKR = 10 ISC = 1.04297E-015 NC = 1.1899 RB = 10
+    IRB = 1E-006 RBM = 10 RE = .76364 RC = 9 EG = 1.11 XTI = 3
+    CJE = 2.0322E-012 VJE = .6 MJE = .290076 TF = 6.558E-012 XTF = 38.975
+    VTF = 10.931 ITF = .52108 CJC = 1.00353E-012 VJC = .34081 MJC = .19422
+    XCJC = .12 TR = 3.073E-009 VJS = .75 FC = .8
.ENDS


.SUBCKT BFG93AX_PH 4 5 6
*NODES             C B E
*SOT143X
Q1 1 2 3 BFR91A
L1 5 8 .12N
L2 4 1 .21N
L3 6 7 .06N
Le 3 7 .4N
Lb 8 2 .95N
CBE 8 7 84F
CCE 1 7 191F
CCB 8 1 17F
.MODEL  BFR91A   NPN  IS = 1.3287E-015 BF = 102 NF = 1.00025 VAF = 51.9033
+    IKF = 8.1551 ISE = 1.3903E-014 NE = 1.5129 BR = 17.6953 NR = .99404
+    VAR = 3.2803 IKR = 10 ISC = 1.04297E-015 NC = 1.1899 RB = 10
+    IRB = 1E-006 RBM = 10 RE = .76364 RC = 9 EG = 1.11 XTI = 3
+    CJE = 2.0322E-012 VJE = .6 MJE = .290076 TF = 6.558E-012 XTF = 38.975
+    VTF = 10.931 ITF = .52108 CJC = 1.00353E-012 VJC = .34081 MJC = .19422
+    XCJC = .12 TR = 3.073E-009 VJS = .75 FC = .8
.ENDS


.SUBCKT BFG93AXR_PH 4 5 6
*NODES              C B E
*SOT143XR
Q1 1 2 3 BFR91A
L1 5 8 .12N
L2 4 1 .21N
L3 6 7 .06N
Le 3 7 .4N
Lb 8 2 .95N
CBE 8 7 84F
CCE 1 7 191F
CCB 8 1 17F
.MODEL  BFR91A   NPN  IS = 1.3287E-015 BF = 102 NF = 1.00025 VAF = 51.9033
+    IKF = 8.1551 ISE = 1.3903E-014 NE = 1.5129 BR = 17.6953 NR = .99404
+    VAR = 3.2803 IKR = 10 ISC = 1.04297E-015 NC = 1.1899 RB = 10
+    IRB = 1E-006 RBM = 10 RE = .76364 RC = 9 EG = 1.11 XTI = 3
+    CJE = 2.0322E-012 VJE = .6 MJE = .290076 TF = 6.558E-012 XTF = 38.975
+    VTF = 10.931 ITF = .52108 CJC = 1.00353E-012 VJC = .34081 MJC = .19422
+    XCJC = .12 TR = 3.073E-009 VJS = .75 FC = .8
.ENDS


.SUBCKT BFG94_PH 4 5 6
*NODES           C B E
*SOT223C
Q1 1 2 3 BFR91A
L1 5 8 .025N
L2 4 1 1.19N
L3 6 7 .60N
Le 3 7 .2N
Lb 8 2 1.5N
CBE 8 7 182F
CCE 1 7 249F
CCB 8 1 16F
.MODEL  BFR91A   NPN  IS = 1.3287E-015 BF = 102 NF = 1.00025 VAF = 51.9033
+    IKF = 8.1551 ISE = 1.3903E-014 NE = 1.5129 BR = 17.6953 NR = .99404
+    VAR = 3.2803 IKR = 10 ISC = 1.04297E-015 NC = 1.1899 RB = 10
+    IRB = 1E-006 RBM = 10 RE = .76364 RC = 9 EG = 1.11 XTI = 3
+    CJE = 2.0322E-012 VJE = .6 MJE = .290076 TF = 6.558E-012 XTF = 38.975
+    VTF = 10.931 ITF = .52108 CJC = 1.00353E-012 VJC = .34081 MJC = .19422
+    XCJC = .12 TR = 3.073E-009 VJS = .75 FC = .8
.ENDS


.SUBCKT BFG96_PH 4 5 6
*NODES           C B E
*SOT103
Q1 1 2 3 BFR96
L1 5 8 .64N
L2 4 1 .57N
L3 6 7 .40N
Le 3 7 .1N
Lb 8 2 .8N
CBE 8 7 241F
CCE 1 7 238F
CCB 8 1 12F
.MODEL  BFR96   NPN  IS = 2.4446E-015 BF = 98 NF = .987224 VAF = 26.695
+    IKF = 2 ISE = 3.957E-014 NE = 1.4133 BR = 85.397 NR = .97818
+    VAR = 4.69684 IKR = 3.0874E-002 ISC = 3.0778E-015 NC = 1.1202 RB = 3
+    IRB = 1E-006 RBM = 3 RE = 7.1715E-002 RC = .662 EG = 1.11 XTI = 3
+    CJE = 5.15057E-012 VJE = .6 MJE = .37778 TF = 1.619E-011 XTF = .75
+    VTF = 2.83687E-002 ITF = .24803 CJC = 2.3839E-012 VJC = .298165
+    MJC = .214438 XCJC = .179 VJS = .75 FC = .707169
.ENDS


.SUBCKT BFG97_PH 4 5 6
*NODES           C B E
*SOT223C
Q1 1 2 3 BFR96
L1 5 8 .025N
L2 4 1 1.19N
L3 6 7 .60N
Le 3 7 .2N
Lb 8 2 1.5N
CBE 8 7 182F
CCE 1 7 249F
CCB 8 1 16F
.MODEL  BFR96   NPN  IS = 2.4446E-015 BF = 98 NF = .987224 VAF = 26.695
+    IKF = 2 ISE = 3.957E-014 NE = 1.4133 BR = 85.397 NR = .97818
+    VAR = 4.69684 IKR = 3.0874E-002 ISC = 3.0778E-015 NC = 1.1202 RB = 3
+    IRB = 1E-006 RBM = 3 RE = 7.1715E-002 RC = .662 EG = 1.11 XTI = 3
+    CJE = 5.15057E-012 VJE = .6 MJE = .37778 TF = 1.619E-011 XTF = .75
+    VTF = 2.83687E-002 ITF = .24803 CJC = 2.3839E-012 VJC = .298165
+    MJC = .214438 XCJC = .179 VJS = .75 FC = .707169
.ENDS


.SUBCKT BFP90A_PH 4 5 6
*NODES            C B E
*SOT173
Q1 1 2 3 BFR90A
L1 5 8 .10N
L2 4 1 .30N
L3 6 7 .18N
Le 3 7 .3N
Lb 8 2 .5N
CBE 8 7 155F
CCE 1 7 251F
CCB 8 1 10F
.MODEL  BFR90A   NPN  IS = 4.1188E-016 BF = 102.64 NF = .99728 VAF = 62.672
+    IKF = 3.20054 ISE = 4.0106E-015 NE = 1.577 BR = 18.1086 NR = .9962
+    VAR = 3.36915 IKR = 1.28155 ISC = 2.799E-016 NC = 1.07543 RB = 10
+    IRB = 1E-006 RBM = 10 RE = 1.1645 RC = 2.32 EG = 1.10 XTI = 3
+    CJE = 8.905E-013 VJE = .6 MJE = .25857 TF = 1.5497E-011 XTF = 39.14
+    VTF = 2.1528 ITF = .213776 CJC = 5.4656E-013 VJC = .38082 MJC = .202935
+    XCJC = .15 TR = 5.61796E-009 VJS = .75 FC = .85
.ENDS


.SUBCKT BFP91A_PH 4 5 6
*NODES            C B E
*SOT173
Q1 1 2 3 BFR91A
L1 5 8 .10N
L2 4 1 .30N
L3 6 7 .18N
Le 3 7 .3N
Lb 8 2 .5N
CBE 8 7 155F
CCE 1 7 251F
CCB 8 1 10F
.MODEL  BFR91A   NPN  IS = 1.3287E-015 BF = 102 NF = 1.00025 VAF = 51.9033
+    IKF = 8.1551 ISE = 1.3903E-014 NE = 1.5129 BR = 17.6953 NR = .99404
+    VAR = 3.2803 IKR = 10 ISC = 1.04297E-015 NC = 1.1899 RB = 10
+    IRB = 1E-006 RBM = 10 RE = .76364 RC = 9 EG = 1.11 XTI = 3
+    CJE = 2.0322E-012 VJE = .6 MJE = .290076 TF = 6.558E-012 XTF = 38.975
+    VTF = 10.931 ITF = .52108 CJC = 1.00353E-012 VJC = .34081 MJC = .19422
+    XCJC = .12 TR = 3.073E-009 VJS = .75 FC = .8
.ENDS


.SUBCKT BFP96_PH 4 5 6
*NODES           C B E
*SOT173
Q1 1 2 3 BFR96
L1 5 8 .10N
L2 4 1 .30N
L3 6 7 .18N
Le 3 7 .3N
Lb 8 2 .5N
CBE 8 7 155F
CCE 1 7 251F
CCB 8 1 10F
.MODEL  BFR96   NPN  IS = 2.4446E-015 BF = 98 NF = .987224 VAF = 26.695
+    IKF = 2 ISE = 3.957E-014 NE = 1.4133 BR = 85.397 NR = .97818
+    VAR = 4.69684 IKR = 3.0874E-002 ISC = 3.0778E-015 NC = 1.1202 RB = 3
+    IRB = 1E-006 RBM = 3 RE = 7.1715E-002 RC = .662 EG = 1.11 XTI = 3
+    CJE = 5.15057E-012 VJE = .6 MJE = .37778 TF = 1.619E-011 XTF = .75
+    VTF = 2.83687E-002 ITF = .24803 CJC = 2.3839E-012 VJC = .298165
+    MJC = .214438 XCJC = .179 VJS = .75 FC = .707169
.ENDS

