**********
*
* Philips RF BJT Model Additions
*
**********
*SRC=BFG90A;BFG90A;BJTs NPN;RF;SOT103
*SYM=RFNBJT
.SUBCKT BFG90A 1 2 3
*SOT103
Q1 6 7 8 BFR90AP
L1 2 4 0.64NH
L2 6 1 0.57NH
L3 5 3 0.40NH
LB 4 7 0.80NH
LE 8 5 0.10NH
CCB 4 6 12FF
CBE 4 5 241FF
CCE 5 6 238FF
.ENDS
*include Philrf.lib
**********
*SRC=BFG51;BFG51;BJTs PNP;RF;SOT103
*SYM=RFPBJT
.SUBCKT BFG51 1 2 3
*SOT103
Q1 6 7 8 BFT92P
L1 2 4 0.64NH
L2 6 1 0.57NH
L3 5 3 0.40NH
LB 4 7 0.80NH
LE 8 5 0.10NH
CCB 4 6 12FF
CBE 4 5 241FF
CCE 5 6 238FF
.ENDS
*include Philrf.lib
**********
*SRC=BFG91A;BFG91A;BJTs NPN;RF;SOT103
*SYM=RFNBJT
.SUBCKT BFG91A 1 2 3
*SOT103
Q1 6 7 8 BFR91AP
L1 2 4 0.64NH
L2 6 1 0.57NH
L3 5 3 0.40NH
LB 4 7 0.80NH
LE 8 5 0.10NH
CCB 4 6 12FF
CBE 4 5 241FF
CCE 5 6 238FF
.ENDS
*include Philrf.lib
**********
*SRC=BFG23;BFG23;BJTs PNP;RF;SOT103
*SYM=RFPBJT
.SUBCKT BFG23 1 2 3
*SOT103
Q1 6 7 8 BFT93P
L1 2 4 0.64NH
L2 6 1 0.57NH
L3 5 3 0.40NH
LB 4 7 0.80NH
LE 8 5 0.10NH
CCB 4 6 12FF
CBE 4 5 241FF
CCE 5 6 238FF
.ENDS
*include Philrf.lib
**********
*SRC=BFG96;BFG96;BJTs NPN;RF;SOT103
*SYM=RFNBJT
.SUBCKT BFG96 1 2 3
*SOT103
Q1 6 7 8 BFR96P
L1 2 4 0.64NH
L2 6 1 0.57NH
L3 5 3 0.40NH
LB 4 7 0.80NH
LE 8 5 0.10NH
CCB 4 6 12FF
CBE 4 5 241FF
CCE 5 6 238FF
.ENDS
*include Philrf.lib
**********
*SRC=BFG32;BFG32;BJTs PNP;RF;SOT103
*SYM=RFPBJT
.SUBCKT BFG32 1 2 3
*SOT103
Q1 6 7 8 BFQ32P
L1 2 4 0.64NH
L2 6 1 0.57NH
L3 5 3 0.40NH
LB 4 7 0.80NH
LE 8 5 0.10NH
CCB 4 6 12FF
CBE 4 5 241FF
CCE 5 6 238FF
.ENDS
*include Philrf.lib
**********
*SRC=BFG34;BFG34;BJTs NPN;RF;SOT103
*SYM=RFNBJT
.SUBCKT BFG34 1 2 3
*SOT103
Q1 6 7 8 BFQ34P
L1 2 4 0.64NH
L2 6 1 0.57NH
L3 5 3 0.40NH
LB 4 7 0.80NH
LE 8 5 0.10NH
CCB 4 6 12FF
CBE 4 5 241FF
CCE 5 6 238FF
.ENDS
*include Philrf.lib
**********
*SRC=BFG65;BFG65;BJTs NPN;RF;SOT103
*SYM=RFNBJT
.SUBCKT BFG65 1 2 3
*SOT103
Q1 6 7 8 BFQ65P
L1 2 4 0.64NH
L2 6 1 0.57NH
L3 5 3 0.40NH
LB 4 7 0.80NH
LE 8 5 0.10NH
CCB 4 6 12FF
CBE 4 5 241FF
CCE 5 6 238FF
.ENDS
*include Philrf.lib
**********
*SRC=BFG195;BFG195;BJTs NPN;RF;SOT103
*SYM=RFNBJT
.SUBCKT BFG195 1 2 3
*SOT103
Q1 6 7 8 BFQ195P
L1 2 4 0.64NH
L2 6 1 0.57NH
L3 5 3 0.40NH
LB 4 7 0.80NH
LE 8 5 0.10NH
CCB 4 6 12FF
CBE 4 5 241FF
CCE 5 6 238FF
.ENDS
*include Philrf.lib
**********
*SRC=BFG134;BFG134;BJTs NPN;RF;SOT103
*SYM=RFNBJT
.SUBCKT BFG134 1 2 3
*SOT103
Q1 6 7 8 BFR134P
L1 2 4 0.64NH
L2 6 1 0.57NH
L3 5 3 0.40NH
LB 4 7 0.80NH
LE 8 5 0.10NH
CCB 4 6 12FF
CBE 4 5 241FF
CCE 5 6 238FF
.ENDS
*include Philrf.lib
**********
*SRC=BFR90A;BFR90A;BJTs NPN;RF;SOT37 
*SYM=RFNBJT
.SUBCKT BFR90A 1 2 3
*SOT37 
Q1 6 7 8 BFR90AP
L1 2 4 1.02NH
L2 6 1 0.32NH
L3 5 3 0.70NH
LB 4 7 0.78NH
LE 8 5 1.20NH
CCB 4 6 52FF
CBE 4 5 190FF
CCE 5 6 408FF
.ENDS
*include Philrf.lib
**********
*SRC=BFR91A;BFR91A;BJTs NPN;RF;SOT37 
*SYM=RFNBJT
.SUBCKT BFR91A 1 2 3
*SOT37 
Q1 6 7 8 BFR91AP
L1 2 4 1.02NH
L2 6 1 0.32NH
L3 5 3 0.70NH
LB 4 7 0.78NH
LE 8 5 1.20NH
CCB 4 6 52FF
CBE 4 5 190FF
CCE 5 6 408FF
.ENDS
*include Philrf.lib
**********
*SRC=BFQ23;BFQ23;BJTs PNP;RF;SOT37 
*SYM=RFPBJT
.SUBCKT BFQ23 1 2 3
*SOT37 
Q1 6 7 8 BFT93P
L1 2 4 1.02NH
L2 6 1 0.32NH
L3 5 3 0.70NH
LB 4 7 0.78NH
LE 8 5 1.20NH
CCB 4 6 52FF
CBE 4 5 190FF
CCE 5 6 408FF
.ENDS
*include Philrf.lib
**********
*SRC=BFR96S;BFR96S;BJTs NPN;RF;SOT37 
*SYM=RFNBJT
.SUBCKT BFR96S 1 2 3
*SOT37 
Q1 6 7 8 BFR96P
L1 2 4 1.02NH
L2 6 1 0.32NH
L3 5 3 0.70NH
LB 4 7 0.78NH
LE 8 5 1.20NH
CCB 4 6 52FF
CBE 4 5 190FF
CCE 5 6 408FF
.ENDS
*include Philrf.lib
**********
*SRC=BFQ32;BFQ32;BJTs PNP;RF;SOT37 
*SYM=RFPBJT
.SUBCKT BFQ32 1 2 3
*SOT37 
Q1 6 7 8 BFQ32P
L1 2 4 1.02NH
L2 6 1 0.32NH
L3 5 3 0.70NH
LB 4 7 0.78NH
LE 8 5 1.20NH
CCB 4 6 52FF
CBE 4 5 190FF
CCE 5 6 408FF
.ENDS
*include Philrf.lib
**********
*SRC=BFQ34T;BFQ34T;BJTs NPN;RF;SOT37 
*SYM=RFNBJT
.SUBCKT BFQ34T 1 2 3
*SOT37 
Q1 6 7 8 BFQ34P
L1 2 4 1.02NH
L2 6 1 0.32NH
L3 5 3 0.70NH
LB 4 7 0.78NH
LE 8 5 1.20NH
CCB 4 6 52FF
CBE 4 5 190FF
CCE 5 6 408FF
.ENDS
*include Philrf.lib
**********
*SRC=BFQ65;BFQ65;BJTs NPN;RF;SOT37 
*SYM=RFNBJT
.SUBCKT BFQ65 1 2 3
*SOT37 
Q1 6 7 8 BFQ65P
L1 2 4 1.02NH
L2 6 1 0.32NH
L3 5 3 0.70NH
LB 4 7 0.78NH
LE 8 5 1.20NH
CCB 4 6 52FF
CBE 4 5 190FF
CCE 5 6 408FF
.ENDS
*include Philrf.lib
**********
*SRC=BFR134;BFR134;BJTs NPN;RF;SOT37
*SYM=RFNBJT
.SUBCKT BFR134 1 2 3
*SOT37
Q1 6 7 8 BFR134P
L1 2 4 1.02NH
L2 6 1 0.32NH
L3 5 3 0.70NH
LB 4 7 0.78NH
LE 8 5 1.20NH
CCB 4 6 52FF
CBE 4 5 190FF
CCE 5 6 408FF
.ENDS
*include Philrf.lib
**********
*SRC=BFR521;BFR521;BJTs NPN;RF;SOT37
*SYM=RFNBJT
.SUBCKT BFR521 1 2 3
*SOT37
Q1 6 7 8 BFR520P
L1 2 4 1.02NH
L2 6 1 0.32NH
L3 5 3 0.70NH
LB 4 7 0.78NH
LE 8 5 1.20NH
CCB 4 6 52FF
CBE 4 5 190FF
CCE 5 6 408FF
.ENDS
*include Philrf.lib
**********
*SRC=BFR541;BFR541;BJTs NPN;RF;SOT37
*SYM=RFNBJT
.SUBCKT BFR541 1 2 3
*SOT37
Q1 6 7 8 BFR540P
L1 2 4 1.02NH
L2 6 1 0.32NH
L3 5 3 0.70NH
LB 4 7 0.78NH
LE 8 5 1.20NH
CCB 4 6 52FF
CBE 4 5 190FF
CCE 5 6 408FF
.ENDS
*include Philrf.lib
**********
*SRC=BFP90A;BFP90A;BJTs NPN;RF;SOT173
*SYM=RFNBJT
.SUBCKT BFP90A 1 2 3
*SOT173
Q1 6 7 8 BFR90AP
L1 2 4 0.10NH
L2 6 1 0.30NH
L3 5 3 0.18NH
LB 4 7 0.50NH
LE 8 5 0.30NH
CCB 4 6 10FF
CBE 4 5 155FF
CCE 5 6 251FF
.ENDS
*include Philrf.lib
**********
*SRC=BFQ51C;BFQ51C;BJTs PNP;RF;SOT173
*SYM=RFPBJT
.SUBCKT BFQ51C 1 2 3
*SOT173
Q1 6 7 8 BFT92P
L1 2 4 0.10NH
L2 6 1 0.30NH
L3 5 3 0.18NH
LB 4 7 0.50NH
LE 8 5 0.30NH
CCB 4 6 10FF
CBE 4 5 155FF
CCE 5 6 251FF
.ENDS
*include Philrf.lib
**********
*SRC=BFP91A;BFP91A;BJTs NPN;RF;SOT173
*SYM=RFNBJT
.SUBCKT BFP91A 1 2 3
*SOT173
Q1 6 7 8 BFR91AP
L1 2 4 0.10NH
L2 6 1 0.30NH
L3 5 3 0.18NH
LB 4 7 0.50NH
LE 8 5 0.30NH
CCB 4 6 10FF
CBE 4 5 155FF
CCE 5 6 251FF
.ENDS
*include Philrf.lib
**********
*SRC=BFQ23C;BFQ23C;BJTs PNP;RF;SOT173
*SYM=RFPBJT
.SUBCKT BFQ23C 1 2 3
*SOT173
Q1 6 7 8 BFT93P
L1 2 4 0.10NH
L2 6 1 0.30NH
L3 5 3 0.18NH
LB 4 7 0.50NH
LE 8 5 0.30NH
CCB 4 6 10FF
CBE 4 5 155FF
CCE 5 6 251FF
.ENDS
*include Philrf.lib
**********
*SRC=BFP96;BFP96;BJTs NPN;RF;SOT173
*SYM=RFNBJT
.SUBCKT BFP96 1 2 3
*SOT173
Q1 6 7 8 BFR96P
L1 2 4 0.10NH
L2 6 1 0.30NH
L3 5 3 0.18NH
LB 4 7 0.50NH
LE 8 5 0.30NH
CCB 4 6 10FF
CBE 4 5 155FF
CCE 5 6 251FF
.ENDS
*include Philrf.lib
**********
*SRC=BFQ32C;BFQ32C;BJTs PNP;RF;SOT173
*SYM=RFPBJT
.SUBCKT BFQ32C 1 2 3
*SOT173
Q1 6 7 8 BFQ32P
L1 2 4 0.10NH
L2 6 1 0.30NH
L3 5 3 0.18NH
LB 4 7 0.50NH
LE 8 5 0.30NH
CCB 4 6 10FF
CBE 4 5 155FF
CCE 5 6 251FF
.ENDS
*include Philrf.lib
**********
*SRC=BFQ33C;BFQ33C;BJTs NPN;RF;SOT173
*SYM=RFNBJT
.SUBCKT BFQ33C 1 2 3
*SOT173
Q1 6 7 8 BFQ33P
L1 2 4 0.10NH
L2 6 1 0.30NH
L3 5 3 0.18NH
LB 4 7 0.50NH
LE 8 5 0.30NH
CCB 4 6 10FF
CBE 4 5 155FF
CCE 5 6 251FF
.ENDS
*include Philrf.lib
**********
*SRC=BFQ66;BFQ66;BJTs NPN;RF;SOT173
*SYM=RFNBJT
.SUBCKT BFQ66 1 2 3
*SOT173
Q1 6 7 8 BFQ65P
L1 2 4 0.10NH
L2 6 1 0.30NH
L3 5 3 0.18NH
LB 4 7 0.50NH
LE 8 5 0.30NH
CCB 4 6 10FF
CBE 4 5 155FF
CCE 5 6 251FF
.ENDS
*include Philrf.lib
**********
*SRC=BFQ135;BFQ135;BJTs NPN;RF;ST172A2A
*SYM=RFNBJT
.SUBCKT BFQ135 1 2 3
*ST172A2A
Q1 4 6 5 BFQ135P
LB 20 6 1.85NH
LE 5 7 1.22NH
CCB 1 2 36FF
CBE 2 3 225FF
CCE 1 3 362FF
LB1 2 20 .5919NH
CB1 20 0 .2292PF
LC1 4 1 .6913NH
CC1 1 0 .2677PF
LE1 7 8 1.763NH
CE1 8 0 .0107PF
LE2 8 31 .4485NH
CE2 31 0 .1057PF
RE2 31 3 .1U
LE3 7 9 9.575NH
CE3 9 0 .0579PF
LE4 9 32 .5205NH
CE4 32 0 .1227PF
RE4 32 3 .1U
.ENDS
*include Philrf.lib
**********
*SRC=BFQ270;BFQ270;BJTs NPN;RF;ST172A2D
*SYM=RFNBJT
.SUBCKT BFQ270 1 2 3
*ST172A2D
Q1 4 6 5 BFQ270P
LB 20 6 0.93NH
LE 5 7 0.61NH
CCB 1 2 36FF
CBE 2 3 225FF
CCE 1 3 362FF
LB1 2 20 .5919NH
CB1 20 0 .2292PF
LC1 4 1 .6913NH
CC1 1 0 .2677PF
LE1 7 8 1.763NH
CE1 8 0 .0107PF
LE2 8 31 .4485NH
CE2 31 0 .1057PF
RE2 31 3 .1U
LE3 7 9 9.575NH
CE3 9 0 .0579PF
LE4 9 32 .5205NH
CE4 32 0 .1227PF
RE4 32 3 .1U
.ENDS
*include Philrf.lib
**********
*SRC=BFR92A;BFR92A;BJTs NPN;RF;SOT23 
*SYM=RFNBJT
.SUBCKT BFR92A 1 2 3
*SOT23 
Q1 6 7 8 BFR90AP
L1 2 4 0.35NH
L2 6 1 0.17NH
L3 5 3 0.35NH
LB 4 7 0.40NH
LE 8 5 0.83NH
CCB 4 6 71FF
CBE 4 5 71FF
CCE 5 6 2FF
.ENDS
*include Philrf.lib
**********
*SRC=BFT92;BFT92;BJTs PNP;RF;SOT23 
*SYM=RFPBJT
.SUBCKT BFT92 1 2 3
*SOT23 
Q1 6 7 8 BFT92P
L1 2 4 0.35NH
L2 6 1 0.17NH
L3 5 3 0.35NH
LB 4 7 0.40NH
LE 8 5 0.83NH
CCB 4 6 71FF
CBE 4 5 71FF
CCE 5 6 2FF
.ENDS
*include Philrf.lib
**********
*SRC=BFR93A;BFR93A;BJTs NPN;RF;SOT23 
*SYM=RFNBJT
.SUBCKT BFR93A 1 2 3
*SOT23 
Q1 6 7 8 BFR91AP
L1 2 4 0.35NH
L2 6 1 0.17NH
L3 5 3 0.35NH
LB 4 7 0.40NH
LE 8 5 0.83NH
CCB 4 6 71FF
CBE 4 5 71FF
CCE 5 6 2FF
.ENDS
*include Philrf.lib
**********
*SRC=BFT93;BFT93;BJTs PNP;RF;SOT23 
*SYM=RFPBJT
.SUBCKT BFT93 1 2 3
*SOT23 
Q1 6 7 8 BFT93P
L1 2 4 0.35NH
L2 6 1 0.17NH
L3 5 3 0.35NH
LB 4 7 0.40NH
LE 8 5 0.83NH
CCB 4 6 71FF
CBE 4 5 71FF
CCE 5 6 2FF
.ENDS
*include Philrf.lib
**********
*SRC=BFR106;BFR106;BJTs NPN;RF;SOT23 
*SYM=RFNBJT
.SUBCKT BFR106 1 2 3
*SOT23 
Q1 6 7 8 BFR96P
L1 2 4 0.35NH
L2 6 1 0.17NH
L3 5 3 0.35NH
LB 4 7 0.40NH
LE 8 5 0.83NH
CCB 4 6 71FF
CBE 4 5 71FF
CCE 5 6 2FF
.ENDS
*include Philrf.lib
**********
*SRC=BFQ67;BFQ67;BJTs NPN;RF;SOT23 
*SYM=RFNBJT
.SUBCKT BFQ67 1 2 3
*SOT23 
Q1 6 7 8 BFQ65P
L1 2 4 0.35NH
L2 6 1 0.17NH
L3 5 3 0.35NH
LB 4 7 0.40NH
LE 8 5 0.83NH
CCB 4 6 71FF
CBE 4 5 71FF
CCE 5 6 2FF
.ENDS
*include Philrf.lib
**********
*SRC=BFT25A;BFT25A;BJTs NPN;RF;SOT23 
*SYM=RFNBJT
.SUBCKT BFT25A 1 2 3
*SOT23 
Q1 6 7 8 BFT25AP
L1 2 4 0.35NH
L2 6 1 0.17NH
L3 5 3 0.35NH
LB 4 7 0.40NH
LE 8 5 0.83NH
CCB 4 6 71FF
CBE 4 5 71FF
CCE 5 6 2FF
.ENDS
*include Philrf.lib
**********
*SRC=BFR505;BFR505;BJTs NPN;RF;SOT23 
*SYM=RFNBJT
.SUBCKT BFR505 1 2 3
*SOT23 
Q1 6 7 8 BFR505P
L1 2 4 0.35NH
L2 6 1 0.17NH
L3 5 3 0.35NH
LB 4 7 0.40NH
LE 8 5 0.83NH
CCB 4 6 71FF
CBE 4 5 71FF
CCE 5 6 2FF
.ENDS
*include Philrf.lib
**********
*SRC=BFR520;BFR520;BJTs NPN;RF;SOT23 
*SYM=RFNBJT
.SUBCKT BFR520 1 2 3
*SOT23 
Q1 6 7 8 BFR520P
L1 2 4 0.35NH
L2 6 1 0.17NH
L3 5 3 0.35NH
LB 4 7 0.40NH
LE 8 5 0.83NH
CCB 4 6 71FF
CBE 4 5 71FF
CCE 5 6 2FF
.ENDS
*include Philrf.lib
**********
*SRC=BFR540;BFR540;BJTs NPN;RF;SOT23 
*SYM=RFNBJT
.SUBCKT BFR540 1 2 3
*SOT23 
Q1 6 7 8 BFR540P
L1 2 4 0.35NH
L2 6 1 0.17NH
L3 5 3 0.35NH
LB 4 7 0.40NH
LE 8 5 0.83NH
CCB 4 6 71FF
CBE 4 5 71FF
CCE 5 6 2FF
.ENDS
*include Philrf.lib
**********
*SRC=BFG94;BFG94;BJTs NPN;RF;SOT223C
*SYM=RFNBJT
.SUBCKT BFG94 1 2 3
*SOT223C
Q1 6 7 8 BFR91AP
L1 2 4 0.025NH
L2 6 1 1.19NH
L3 5 3 0.60NH
LB 4 7 1.50NH
LE 8 5 0.20NH
CCB 4 6 16FF
CBE 4 5 182FF
CCE 5 6 249FF
.ENDS
*include Philrf.lib
**********
*SRC=BFG31;BFG31;BJTs PNP;RF;SOT223C
*SYM=RFPBJT
.SUBCKT BFG31 1 2 3
*SOT223C
Q1 6 7 8 BFQ32P
L1 2 4 0.025NH
L2 6 1 1.19NH
L3 5 3 0.60NH
LB 4 7 1.50NH
LE 8 5 0.20NH
CCB 4 6 16FF
CBE 4 5 182FF
CCE 5 6 249FF
.ENDS
*include Philrf.lib
**********
*SRC=BFG35;BFG35;BJTs NPN;RF;SOT223C
*SYM=RFNBJT
.SUBCKT BFG35 1 2 3
*SOT223C
Q1 6 7 8 BFQ34P
L1 2 4 0.025NH
L2 6 1 1.19NH
L3 5 3 0.60NH
LB 4 7 1.50NH
LE 8 5 0.20NH
CCB 4 6 16FF
CBE 4 5 182FF
CCE 5 6 249FF
.ENDS
*include Philrf.lib
**********
*SRC=BLT50;BLT50;BJTs NPN;RF;SOT223C
*SYM=RFNBJT
.SUBCKT BLT50 1 2 3
*SOT223C
Q1 6 7 8 BLT91P
L1 2 4 0.025NH
L2 6 1 1.19NH
L3 5 3 0.60NH
LB 4 7 1.50NH
LE 8 5 0.20NH
CCB 4 6 16FF
CBE 4 5 182FF
CCE 5 6 249FF
.ENDS
*include Philrf.lib
**********
*SRC=BFG135;BFG135;BJTs NPN;RF;SOT223A
*SYM=RFNBJT
.SUBCKT BFG135 1 2 3
*SOT223A
Q1 6 7 8 BFR134P
L1 2 4 0.025NH
L2 6 1 1.19NH
L3 5 3 0.60NH
LB 4 7 1.50NH
LE 8 5 0.50NH
CCB 4 6 16FF
CBE 4 5 182FF
CCE 5 6 249FF
.ENDS
*include Philrf.lib
**********
*SRC=BFG541;BFG541;BJTs NPN;RF;SOT223A
*SYM=RFNBJT
.SUBCKT BFG541 1 2 3
*SOT223A
Q1 6 7 8 BFR540P
L1 2 4 0.025NH
L2 6 1 1.19NH
L3 5 3 0.60NH
LB 4 7 1.50NH
LE 8 5 0.50NH
CCB 4 6 16FF
CBE 4 5 182FF
CCE 5 6 249FF
.ENDS
*include Philrf.lib
**********
*SRC=BFR92AW;BFR92AW;BJTs NPN;RF;SOT323
*SYM=RFNBJT
.SUBCKT BFR92AW 1 2 3
*SOT323
Q1 6 7 8 BFR90AP
L1 2 4 0.34NH
L2 6 1 0.10NH
L3 5 3 0.34NH
LB 4 7 0.60NH
LE 8 5 0.60NH
CCB 4 6 100FF
CBE 4 5 2FF
CCE 5 6 100FF
.ENDS
*include Philrf.lib
**********
*SRC=BFT92W;BFT92W;BJTs PNP;RF;SOT323
*SYM=RFPBJT
.SUBCKT BFT92W 1 2 3
*SOT323
Q1 6 7 8 BFT92P
L1 2 4 0.34NH
L2 6 1 0.10NH
L3 5 3 0.34NH
LB 4 7 0.60NH
LE 8 5 0.60NH
CCB 4 6 100FF
CBE 4 5 2FF
CCE 5 6 100FF
.ENDS
*include Philrf.lib
**********
*SRC=BFR93AW;BFR93AW;BJTs NPN;RF;SOT323
*SYM=RFNBJT
.SUBCKT BFR93AW 1 2 3
*SOT323
Q1 6 7 8 BFR91AP
L1 2 4 0.34NH
L2 6 1 0.10NH
L3 5 3 0.34NH
LB 4 7 0.60NH
LE 8 5 0.60NH
CCB 4 6 100FF
CBE 4 5 2FF
CCE 5 6 100FF
.ENDS
*include Philrf.lib
**********
*SRC=BFT93W;BFT93W;BJTs PNP;RF;SOT323
*SYM=RFPBJT
.SUBCKT BFT93W 1 2 3
*SOT323
Q1 6 7 8 BFT93P
L1 2 4 0.34NH
L2 6 1 0.10NH
L3 5 3 0.34NH
LB 4 7 0.60NH
LE 8 5 0.60NH
CCB 4 6 100FF
CBE 4 5 2FF
CCE 5 6 100FF
.ENDS
*include Philrf.lib
**********
*SRC=BFQ67W;BFQ67W;BJTs NPN;RF;SOT323
*SYM=RFNBJT
.SUBCKT BFQ67W 1 2 3
*SOT323
Q1 6 7 8 BFQ65P
L1 2 4 0.34NH
L2 6 1 0.10NH
L3 5 3 0.34NH
LB 4 7 0.60NH
LE 8 5 0.60NH
CCB 4 6 100FF
CBE 4 5 2FF
CCE 5 6 100FF
.ENDS
*include Philrf.lib
**********
*SRC=BFS25A;BFS25A;BJTs NPN;RF;SOT323
*SYM=RFNBJT
.SUBCKT BFS25A 1 2 3
*SOT323
Q1 6 7 8 BFT25AP
L1 2 4 0.34NH
L2 6 1 0.10NH
L3 5 3 0.34NH
LB 4 7 0.60NH
LE 8 5 0.60NH
CCB 4 6 100FF
CBE 4 5 2FF
CCE 5 6 100FF
.ENDS
*include Philrf.lib
**********
*SRC=BFS505;BFS505;BJTs NPN;RF;SOT323
*SYM=RFNBJT
.SUBCKT BFS505 1 2 3
*SOT323
Q1 6 7 8 BFR505P
L1 2 4 0.34NH
L2 6 1 0.10NH
L3 5 3 0.34NH
LB 4 7 0.60NH
LE 8 5 0.60NH
CCB 4 6 100FF
CBE 4 5 2FF
CCE 5 6 100FF
.ENDS
*include Philrf.lib
**********
*SRC=BFS520;BFS520;BJTs NPN;RF;SOT323
*SYM=RFNBJT
.SUBCKT BFS520 1 2 3
*SOT323
Q1 6 7 8 BFR520P
L1 2 4 0.34NH
L2 6 1 0.10NH
L3 5 3 0.34NH
LB 4 7 0.60NH
LE 8 5 0.60NH
CCB 4 6 100FF
CBE 4 5 2FF
CCE 5 6 100FF
.ENDS
*include Philrf.lib
**********
*SRC=BFS540;BFS540;BJTs NPN;RF;SOT323
*SYM=RFNBJT
.SUBCKT BFS540 1 2 3
*SOT323
Q1 6 7 8 BFR540P
L1 2 4 0.34NH
L2 6 1 0.10NH
L3 5 3 0.34NH
LB 4 7 0.60NH
LE 8 5 0.60NH
CCB 4 6 100FF
CBE 4 5 2FF
CCE 5 6 100FF
.ENDS
*include Philrf.lib
**********
*SRC=BFG92A;BFG92A;BJTs NPN;RF;SOT143
*SYM=RFNBJT
.SUBCKT BFG92A 1 2 3
*SOT143
Q1 6 7 8 BFR90AP
L1 2 4 0.12NH
L2 6 1 0.21NH
L3 5 3 0.06NH
LB 4 7 0.95NH
LE 8 5 0.40NH
CCB 4 6 17FF
CBE 4 5 84FF
CCE 5 6 191FF
.ENDS
*include Philrf.lib
**********
*SRC=BFG93A;BFG93A;BJTs NPN;RF;SOT143
*SYM=RFNBJT
.SUBCKT BFG93A 1 2 3
*SOT143
Q1 6 7 8 BFR91AP
L1 2 4 0.12NH
L2 6 1 0.21NH
L3 5 3 0.06NH
LB 4 7 0.95NH
LE 8 5 0.40NH
CCB 4 6 17FF
CBE 4 5 84FF
CCE 5 6 191FF
.ENDS
*include Philrf.lib
**********
*SRC=BFG33;BFG33;BJTs NPN;RF;SOT143
*SYM=RFNBJT
.SUBCKT BFG33 1 2 3
*SOT143
Q1 6 7 8 BFQ33P
L1 2 4 0.12NH
L2 6 1 0.21NH
L3 5 3 0.06NH
LB 4 7 0.95NH
LE 8 5 0.40NH
CCB 4 6 17FF
CBE 4 5 84FF
CCE 5 6 191FF
.ENDS
*include Philrf.lib
**********
*SRC=BFG67;BFG67;BJTs NPN;RF;SOT143
*SYM=RFNBJT
.SUBCKT BFG67 1 2 3
*SOT143
Q1 6 7 8 BFQ65P
L1 2 4 0.12NH
L2 6 1 0.21NH
L3 5 3 0.06NH
LB 4 7 0.95NH
LE 8 5 0.40NH
CCB 4 6 17FF
CBE 4 5 84FF
CCE 5 6 191FF
.ENDS
*include Philrf.lib
**********
*SRC=BFG197;BFG197;BJTs NPN;RF;SOT143
*SYM=RFNBJT
.SUBCKT BFG197 1 2 3
*SOT143
Q1 6 7 8 BFQ195P
L1 2 4 0.12NH
L2 6 1 0.21NH
L3 5 3 0.06NH
LB 4 7 0.95NH
LE 8 5 0.40NH
CCB 4 6 17FF
CBE 4 5 84FF
CCE 5 6 191FF
.ENDS
*include Philrf.lib
**********
*SRC=BFG505;BFG505;BJTs NPN;RF;SOT143
*SYM=RFNBJT
.SUBCKT BFG505 1 2 3
*SOT143
Q1 6 7 8 BFR505P
L1 2 4 0.12NH
L2 6 1 0.21NH
L3 5 3 0.06NH
LB 4 7 0.95NH
LE 8 5 0.40NH
CCB 4 6 17FF
CBE 4 5 84FF
CCE 5 6 191FF
.ENDS
*include Philrf.lib
**********
*SRC=BFG520;BFG520;BJTs NPN;RF;SOT143
*SYM=RFNBJT
.SUBCKT BFG520 1 2 3
*SOT143
Q1 6 7 8 BFR520P
L1 2 4 0.12NH
L2 6 1 0.21NH
L3 5 3 0.06NH
LB 4 7 0.95NH
LE 8 5 0.40NH
CCB 4 6 17FF
CBE 4 5 84FF
CCE 5 6 191FF
.ENDS
*include Philrf.lib
**********
*SRC=BFG540;BFG540;BJTs NPN;RF;SOT143
*SYM=RFNBJT
.SUBCKT BFG540 1 2 3
*SOT143
Q1 6 7 8 BFR540P
L1 2 4 0.12NH
L2 6 1 0.21NH
L3 5 3 0.06NH
LB 4 7 0.95NH
LE 8 5 0.40NH
CCB 4 6 17FF
CBE 4 5 84FF
CCE 5 6 191FF
.ENDS
*include Philrf.lib
**********
*SRC=BFG67R;BFG67R;BJTs NPN;RF;SOT143R
*SYM=RFNBJT
.SUBCKT BFG67R 1 2 3
*SOT143R
Q1 6 7 8 BFQ65P
L1 2 4 0.12NH
L2 6 1 0.21NH
L3 5 3 0.06NH
LB 4 7 0.95NH
LE 8 5 0.40NH
CCB 4 6 17FF
CBE 4 5 84FF
CCE 5 6 191FF
.ENDS
*include Philrf.lib
**********
*SRC=BFG92AX;BFG92AX;BJTs NPN;RF;SOT143X
*SYM=RFNBJT
.SUBCKT BFG92AX 1 2 3
*SOT143X
Q1 6 7 8 BFR90AP
L1 2 4 0.12NH
L2 6 1 0.21NH
L3 5 3 0.06NH
LB 4 7 0.95NH
LE 8 5 0.40NH
CCB 4 6 17FF
CBE 4 5 84FF
CCE 5 6 191FF
.ENDS
*include Philrf.lib
**********
*SRC=BFG93AX;BFG93AX;BJTs NPN;RF;SOT143X
*SYM=RFNBJT
.SUBCKT BFG93AX 1 2 3
*SOT143X
Q1 6 7 8 BFR91AP
L1 2 4 0.12NH
L2 6 1 0.21NH
L3 5 3 0.06NH
LB 4 7 0.95NH
LE 8 5 0.40NH
CCB 4 6 17FF
CBE 4 5 84FF
CCE 5 6 191FF
.ENDS
*include Philrf.lib
**********
*SRC=BFG33X;BFG33X;BJTs NPN;RF;SOT143X
*SYM=RFNBJT
.SUBCKT BFG33X 1 2 3
*SOT143X
Q1 6 7 8 BFQ33P
L1 2 4 0.12NH
L2 6 1 0.21NH
L3 5 3 0.06NH
LB 4 7 0.95NH
LE 8 5 0.40NH
CCB 4 6 17FF
CBE 4 5 84FF
CCE 5 6 191FF
.ENDS
*include Philrf.liba
**********
*SRC=BFG67X;BFG67X;BJTs NPN;RF;SOT143X
*SYM=RFNBJT
.SUBCKT BFG67X 1 2 3
*SOT143X
Q1 6 7 8 BFQ65P
L1 2 4 0.12NH
L2 6 1 0.21NH
L3 5 3 0.06NH
LB 4 7 0.95NH
LE 8 5 0.40NH
CCB 4 6 17FF
CBE 4 5 84FF
CCE 5 6 191FF
.ENDS
*include Philrf.lib
**********
*SRC=BFG197X;BFG197X;BJTs NPN;RF;SOT143X
*SYM=RFNBJT
.SUBCKT BFG197X 1 2 3
*SOT143X
Q1 6 7 8 BFQ195P
L1 2 4 0.12NH
L2 6 1 0.21NH
L3 5 3 0.06NH
LB 4 7 0.95NH
LE 8 5 0.40NH
CCB 4 6 17FF
CBE 4 5 84FF
CCE 5 6 191FF
.ENDS
*include Philrf.lib
**********
*SRC=BFG25AX;BFG25AX;BJTs NPN;RF;SOT143X
*SYM=RFNBJT
.SUBCKT BFG25AX 1 2 3
*SOT143X
Q1 6 7 8 BFT25AP
L1 2 4 0.12NH
L2 6 1 0.21NH
L3 5 3 0.06NH
LB 4 7 0.95NH
LE 8 5 0.40NH
CCB 4 6 17FF
CBE 4 5 84FF
CCE 5 6 191FF
.ENDS
*include Philrf.lib
**********
*SRC=BFG505X;BFG505X;BJTs NPN;RF;SOT143X
*SYM=RFNBJT
.SUBCKT BFG505X 1 2 3
*SOT143X
Q1 6 7 8 BFR505P
L1 2 4 0.12NH
L2 6 1 0.21NH
L3 5 3 0.06NH
LB 4 7 0.95NH
LE 8 5 0.40NH
CCB 4 6 17FF
CBE 4 5 84FF
CCE 5 6 191FF
.ENDS
*include Philrf.lib
**********
*SRC=BFG520X;BFG520X;BJTs NPN;RF;SOT143X
*SYM=RFNBJT
.SUBCKT BFG520X 1 2 3
*SOT143X
Q1 6 7 8 BFR505P
L1 2 4 0.12NH
L2 6 1 0.21NH
L3 5 3 0.06NH
LB 4 7 0.95NH
LE 8 5 0.40NH
CCB 4 6 17FF
CBE 4 5 84FF
CCE 5 6 191FF
.ENDS
*include Philrf.lib
**********
*SRC=BFG540X;BFG540X;BJTs NPN;RF;SOT143X
*SYM=RFNBJT
.SUBCKT BFG540X 1 2 3
*SOT143X
Q1 6 7 8 BFR540P
L1 2 4 0.12NH
L2 6 1 0.21NH
L3 5 3 0.06NH
LB 4 7 0.95NH
LE 8 5 0.40NH
CCB 4 6 17FF
CBE 4 5 84FF
CCE 5 6 191FF
.ENDS
*include Philrf.lib
**********
*SRC=BFG92AXR;BFG92AXR;BJTs NPN;RF;SOT143XR
*SYM=RFNBJT
.SUBCKT BFG92AXR 1 2 3
*SOT143XR
Q1 6 7 8 BFR90AP
L1 2 4 0.12NH
L2 6 1 0.21NH
L3 5 3 0.06NH
LB 4 7 0.95NH
LE 8 5 0.40NH
CCB 4 6 17FF
CBE 4 5 84FF
CCE 5 6 191FF
.ENDS
*include Philrf.lib
**********
*SRC=BFG93AXR;BFG93AXR;BJTs NPN;RF;SOT143XR
*SYM=RFNBJT
.SUBCKT BFG93AXR 1 2 3
*SOT143XR
Q1 6 7 8 BFR91AP
L1 2 4 0.12NH
L2 6 1 0.21NH
L3 5 3 0.06NH
LB 4 7 0.95NH
LE 8 5 0.40NH
CCB 4 6 17FF
CBE 4 5 84FF
CCE 5 6 191FF
.ENDS
*include Philrf.lib
**********
*SRC=BFG67XR;BFG67XR;BJTs NPN;RF;SOT143XR
*SYM=RFNBJT
.SUBCKT BFG67XR 1 2 3
*SOT143XR
Q1 6 7 8 BFQ65P
L1 2 4 0.12NH
L2 6 1 0.21NH
L3 5 3 0.06NH
LB 4 7 0.95NH
LE 8 5 0.40NH
CCB 4 6 17FF
CBE 4 5 84FF
CCE 5 6 191FF
.ENDS
*include Philrf.lib
**********
*SRC=BFG197XR;BFG197XR;BJTs NPN;RF;SOT143XR
*SYM=RFNBJT
.SUBCKT BFG197XR 1 2 3
*SOT143XR
Q1 6 7 8 BFQ195P
L1 2 4 0.12NH
L2 6 1 0.21NH
L3 5 3 0.06NH
LB 4 7 0.95NH
LE 8 5 0.40NH
CCB 4 6 17FF
CBE 4 5 84FF
CCE 5 6 191FF
.ENDS
*include Philrf.lib
**********
*SRC=BFG505XR;BFG505XR;BJTs NPN;RF;SOT143XR
*SYM=RFNBJT
.SUBCKT BFG505XR 1 2 3
*SOT143XR
Q1 6 7 8 BFR505P
L1 2 4 0.12NH
L2 6 1 0.21NH
L3 5 3 0.06NH
LB 4 7 0.95NH
LE 8 5 0.40NH
CCB 4 6 17FF
CBE 4 5 84FF
CCE 5 6 191FF
.ENDS
*include Philrf.liba
**********
*SRC=BFG520XR;BFG520XR;BJTs NPN;RF;SOT143XR
*SYM=RFNBJT
.SUBCKT BFG520XR 1 2 3
*SOT143XR
Q1 6 7 8 BFR520P
L1 2 4 0.12NH
L2 6 1 0.21NH
L3 5 3 0.06NH
LB 4 7 0.95NH
LE 8 5 0.40NH
CCB 4 6 17FF
CBE 4 5 84FF
CCE 5 6 191FF
.ENDS
*include Philrf.lib
**********
*SRC=BFG540XR;BFG540XR;BJTs NPN;RF;SOT143XR
*SYM=RFNBJT
.SUBCKT BFG540XR 1 2 3
*SOT143XR
Q1 6 7 8 BFR540P
L1 2 4 0.12NH
L2 6 1 0.21NH
L3 5 3 0.06NH
LB 4 7 0.95NH
LE 8 5 0.40NH
CCB 4 6 17FF
CBE 4 5 84FF
CCE 5 6 191FF
.ENDS
*include Philrf.lib
**********
*SRC=BFQ233;BFQ233;BJTs NPN;RF;SOT5A (TO39)
*SYM=RFNBJT
.SUBCKT BFQ233 1 2 3
*SOT5A 
Q1 6 7 8 BFQ234P
L1 2 4 0.61NH
L2 6 1 0.05NH
L3 5 3 0.80NH
LB 4 7 1.20NH
LE 8 5 1.00NH
CCB 4 6 760FF
CBE 4 5 270FF
CCE 5 6 760FF
.ENDS
*include Philrf.lib
**********
*SRC=BFQ253;BFQ253;BJTs PNP;RF;SOT5A (TO39) 
*SYM=RFPBJT
.SUBCKT BFQ253 1 2 3
*SOT5A 
Q1 6 7 8 BFQ254P
L1 2 4 0.61NH
L2 6 1 0.05NH
L3 5 3 0.80NH
LB 4 7 1.20NH
LE 8 5 1.00NH
CCB 4 6 760FF
CBE 4 5 270FF
CCE 5 6 760FF
.ENDS
*include Philrf.lib
**********
*SRC=BFQ263;BFQ263;BJTs NPN;RF;SOT5B (TO39) 
*SYM=RFNBJT
.SUBCKT BFQ263 1 2 3
*SOT5B 
Q1 6 7 8 BFQ268P
L1 2 4 0.61NH
L2 6 1 0.05NH
L3 5 3 0.80NH
LB 4 7 0.60NH
LE 8 5 1.00NH
CCB 4 6 760FF
CBE 4 5 270FF
CCE 5 6 760FF
.ENDS
*include Philrf.lib
**********
*SRC=BFQ163;BFQ163;BJTs NPN;RF;SOT5C (TO39) 
*SYM=RFNBJT
.SUBCKT BFQ163 1 2 3
*SOT5C 
Q1 6 7 8 BFQ168P
L1 2 4 0.61NH
L2 6 1 0.05NH
L3 5 3 0.80NH
LB 4 7 1.20NH
LE 8 5 0.50NH
CCB 4 6 760FF
CBE 4 5 270FF
CCE 5 6 760FF
.ENDS
*include Philrf.lib
**********
*SRC=BFQ232;BFQ232;BJTs NPN;RF;SOT32A (TO126)
*SYM=RFNBJT
.SUBCKT BFQ232 1 2 3
*SOT32A
Q1 6 7 8 BFQ234P
L1 2 4 0.30NH
L2 6 1 0.30NH
L3 5 3 0.30NH
LB 4 7 2.40NH
LE 8 5 5.00NH
CCB 4 6 274FF
CBE 4 5 2FF
CCE 5 6 274FF
.ENDS
*include Philrf.lib
**********
*SRC=BFQ252;BFQ252;BJTs PNP;RF;SOT32A (TO126)
*SYM=RFPBJT
.SUBCKT BFQ252 1 2 3
*SOT32A
Q1 6 7 8 BFQ254P
L1 2 4 0.30NH
L2 6 1 0.30NH
L3 5 3 0.30NH
LB 4 7 2.40NH
LE 8 5 5.00NH
CCB 4 6 274FF
CBE 4 5 2FF
CCE 5 6 274FF
.ENDS
*include Philrf.lib
**********
*SRC=BFQ262;BFQ262;BJTs NPN;RF;SOT32B (TO126)
*SYM=RFNBJT
.SUBCKT BFQ262 1 2 3
*SOT32B
Q1 6 7 8 BFQ268P
L1 2 4 0.30NH
L2 6 1 0.30NH
L3 5 3 0.30NH
LB 4 7 1.20NH
LE 8 5 5.00NH
CCB 4 6 274FF
CBE 4 5 2FF
CCE 5 6 274FF
.ENDS
*include Philrf.lib
**********
*SRC=BFQ162;BFQ162;BJTs NPN;RF;SOT32C (TO126)
*SYM=RFNBJT
.SUBCKT BFQ162 1 2 3
*SOT32C
Q1 6 7 8 BFQ168P
L1 2 4 0.30NH
L2 6 1 0.30NH
L3 5 3 0.30NH
LB 4 7 2.40NH
LE 8 5 2.50NH
CCB 4 6 274FF
CBE 4 5 2FF
CCE 5 6 274FF
.ENDS
*include Philrf.lib
**********
*SRC=BFQ166;BFQ166;BJTs NPN;RF;SOT223A
*SYM=RFNBJT
.SUBCKT BFQ166 1 2 3
*SOT223A
Q1 6 7 8 BFQ168P
L1 2 4 0.025NH
L2 6 1 1.19NH
L3 5 3 0.60NH
LB 4 7 1.50NH
LE 8 5 0.50NH
CCB 4 6 16FF
CBE 4 5 182FF
CCE 5 6 249FF
.ENDS
*include Philrf.lib
**********
*SRC=BFQ236;BFQ236;BJTs NPN;RF;SOT223A
*SYM=RFNBJT
.SUBCKT BFQ236 1 2 3
*SOT223A
Q1 6 7 8 BFQ234P
L1 2 4 0.025NH
L2 6 1 1.19NH
L3 5 3 0.60NH
LB 4 7 1.50NH
LE 8 5 0.50NH
CCB 4 6 16FF
CBE 4 5 182FF
CCE 5 6 249FF
.ENDS
*include Philrf.liba
**********
*SRC=BFQ256;BFQ256;BJTs PNP;RF;SOT223A
*SYM=RFPBJT
.SUBCKT BFQ256 1 2 3
*SOT223A
Q1 6 7 8 BFQ254P
L1 2 4 0.025NH
L2 6 1 1.19NH
L3 5 3 0.60NH
LB 4 7 1.50NH
LE 8 5 0.50NH
CCB 4 6 16FF
CBE 4 5 182FF
CCE 5 6 249FF
.ENDS
*include Philrf.lib
**********
*
* Philips RF BJT Package Subcircuits
*
**********
.SUBCKT DEV 1 2 3
*SOT103
Q1 6 7 8 DUT
L1 2 4 0.64NH
L2 6 1 0.57NH
L3 5 3 0.40NH
LB 4 7 0.80NH
LE 8 5 0.10NH
CCB 4 6 12FF
CBE 4 5 241FF
CCE 5 6 238FF
.ENDS
*include Philrf.lib
**********
.SUBCKT DEV 1 2 3
*SOT143
Q1 6 7 8 DUT
L1 2 4 0.12NH
L2 6 1 0.21NH
L3 5 3 0.06NH
LB 4 7 0.95NH
LE 8 5 0.40NH
CCB 4 6 17FF
CBE 4 5 84FF
CCE 5 6 191FF
.ENDS
*include Philrf.lib
**********
.SUBCKT DEV 1 2 3
*SOT143R
Q1 6 7 8 DUT
L1 2 4 0.12NH
L2 6 1 0.21NH
L3 5 3 0.06NH
LB 4 7 0.95NH
LE 8 5 0.40NH
CCB 4 6 17FF
CBE 4 5 84FF
CCE 5 6 191FF
.ENDS
*include Philrf.lib
**********
.SUBCKT DEV 1 2 3
*SOT143X
Q1 6 7 8 DUT
L1 2 4 0.12NH
L2 6 1 0.21NH
L3 5 3 0.06NH
LB 4 7 0.95NH
LE 8 5 0.40NH
CCB 4 6 17FF
CBE 4 5 84FF
CCE 5 6 191FF
.ENDS
*include Philrf.lib
**********
.SUBCKT DEV 1 2 3
*SOT143XR
Q1 6 7 8 DUT
L1 2 4 0.12NH
L2 6 1 0.21NH
L3 5 3 0.06NH
LB 4 7 0.95NH
LE 8 5 0.40NH
CCB 4 6 17FF
CBE 4 5 84FF
CCE 5 6 191FF
.ENDS
*include Philrf.lib
**********
.SUBCKT DEV 1 2 3
*SOT173
Q1 6 7 8 DUT
L1 2 4 0.10NH
L2 6 1 0.30NH
L3 5 3 0.18NH
LB 4 7 0.50NH
LE 8 5 0.30NH
CCB 4 6 10FF
CBE 4 5 155FF
CCE 5 6 251FF
.ENDS
*include Philrf.lib
**********
.SUBCKT DEV 1 2 3
*SOT223A
Q1 6 7 8 DUT
L1 2 4 0.025NH
L2 6 1 1.19NH
L3 5 3 0.60NH
LB 4 7 1.50NH
LE 8 5 0.50NH
CCB 4 6 16FF
CBE 4 5 182FF
CCE 5 6 249FF
.ENDS
*include Philrf.lib
**********
.SUBCKT DEV 1 2 3
*SOT223B
Q1 6 7 8 DUT
L1 2 4 0.025NH
L2 6 1 1.19NH
L3 5 3 0.60NH
LB 4 7 0.75NH
LE 8 5 0.50NH
CCB 4 6 16FF
CBE 4 5 182FF
CCE 5 6 249FF
.ENDS
*include Philrf.lib
**********
.SUBCKT DEV 1 2 3
*SOT223C
Q1 6 7 8 DUT
L1 2 4 0.025NH
L2 6 1 1.19NH
L3 5 3 0.60NH
LB 4 7 1.50NH
LE 8 5 0.20NH
CCB 4 6 16FF
CBE 4 5 182FF
CCE 5 6 249FF
.ENDS
*include Philrf.lib
**********
.SUBCKT DEV 1 2 3
*SOT23 
Q1 6 7 8 DUT
L1 2 4 0.35NH
L2 6 1 0.17NH
L3 5 3 0.35NH
LB 4 7 0.40NH
LE 8 5 0.83NH
CCB 4 6 71FF
CBE 4 5 71FF
CCE 5 6 2FF
.ENDS
*include Philrf.lib
**********
.SUBCKT DEV 1 2 3
*SOT323
Q1 6 7 8 DUT
L1 2 4 0.34NH
L2 6 1 0.10NH
L3 5 3 0.34NH
LB 4 7 0.60NH
LE 8 5 0.60NH
CCB 4 6 100FF
CBE 4 5 2FF
CCE 5 6 100FF
.ENDS
*include Philrf.lib
**********
.SUBCKT DEV 1 2 3
*SOT32A
Q1 6 7 8 DUT
L1 2 4 0.30NH
L2 6 1 0.30NH
L3 5 3 0.30NH
LB 4 7 2.40NH
LE 8 5 5.00NH
CCB 4 6 274FF
CBE 4 5 2FF
CCE 5 6 274FF
.ENDS
*include Philrf.lib
**********
.SUBCKT DEV 1 2 3
*SOT32B
Q1 6 7 8 DUT
L1 2 4 0.30NH
L2 6 1 0.30NH
L3 5 3 0.30NH
LB 4 7 1.20NH
LE 8 5 5.00NH
CCB 4 6 274FF
CBE 4 5 2FF
CCE 5 6 274FF
.ENDS
*include Philrf.lib
**********
.SUBCKT DEV 1 2 3
*SOT32C
Q1 6 7 8 DUT
L1 2 4 0.30NH
L2 6 1 0.30NH
L3 5 3 0.30NH
LB 4 7 2.40NH
LE 8 5 2.50NH
CCB 4 6 274FF
CBE 4 5 2FF
CCE 5 6 274FF
.ENDS
*include Philrf.lib
**********
.SUBCKT DEV 1 2 3
*SOT37 
Q1 6 7 8 DUT
L1 2 4 1.02NH
L2 6 1 0.32NH
L3 5 3 0.70NH
LB 4 7 0.78NH
LE 8 5 1.20NH
CCB 4 6 52FF
CBE 4 5 190FF
CCE 5 6 408FF
.ENDS
*include Philrf.lib
**********
.SUBCKT DEV 1 2 3
*SOT5A 
Q1 6 7 8 DUT
L1 2 4 0.61NH
L2 6 1 0.05NH
L3 5 3 0.80NH
LB 4 7 1.20NH
LE 8 5 1.00NH
CCB 4 6 760FF
CBE 4 5 270FF
CCE 5 6 760FF
.ENDS
*include Philrf.lib
**********
.SUBCKT DEV 1 2 3
*SOT5B 
Q1 6 7 8 DUT
L1 2 4 0.61NH
L2 6 1 0.05NH
L3 5 3 0.80NH
LB 4 7 0.60NH
LE 8 5 1.00NH
CCB 4 6 760FF
CBE 4 5 270FF
CCE 5 6 760FF
.ENDS
*include Philrf.lib
**********
.SUBCKT DEV 1 2 3
*SOT5C 
Q1 6 7 8 DUT
L1 2 4 0.61NH
L2 6 1 0.05NH
L3 5 3 0.80NH
LB 4 7 1.20NH
LE 8 5 0.50NH
CCB 4 6 760FF
CBE 4 5 270FF
CCE 5 6 760FF
.ENDS
*include Philrf.lib
**********
.SUBCKT DEV 1 2 3
*ST172A2A
Q1 4 6 5 DUT
LB 20 6 1.85NH
LE 5 7 1.22NH
CCB 1 2 36FF
CBE 2 3 225FF
CCE 1 3 362FF
LB1 2 20 .5919NH
CB1 20 0 .2292PF
LC1 4 1 .6913NH
CC1 1 0 .2677PF
LE1 7 8 1.763NH
CE1 8 0 .0107PF
LE2 8 31 .4485NH
CE2 31 0 .1057PF
RE2 31 3 .1U
LE3 7 9 9.575NH
CE3 9 0 .0579PF
LE4 9 32 .5205NH
CE4 32 0 .1227PF
RE4 32 3 .1U
.ENDS
*include Philrf.lib
**********
.SUBCKT DEV 1 2 3
*ST172A2D
Q1 4 6 5 DUT
LB 20 6 0.93NH
LE 5 7 0.61NH
CCB 1 2 36FF
CBE 2 3 225FF
CCE 1 3 362FF
LB1 2 20 .5919NH
CB1 20 0 .2292PF
LC1 4 1 .6913NH
CC1 1 0 .2677PF
LE1 7 8 1.763NH
CE1 8 0 .0107PF
LE2 8 31 .4485NH
CE2 31 0 .1057PF
RE2 31 3 .1U
LE3 7 9 9.575NH
CE3 9 0 .0579PF
LE4 9 32 .5205NH
CE4 32 0 .1227PF
RE4 32 3 .1U
.ENDS
*include Philrf.lib
**********
*Philps RF BJT MODEL Statments
**********
.MODEL  BFQ135P  NPN
+ IS=5.36265E-015
+ BF=9.00000E+001
+ NF=1.00672E+000
+ VAF=4.73623E+001
+ IKF=6.33467E+001
+ ISE=2.82997E-013
+ NE=1.87397E+000
+ BR=9.14300E+000
+ NR=1.05500E+000
+ VAR=3.00000E+000
+ IKR=3.62500E-002
+ ISC=8.32000E-017
+ NC=1.03900E+000
+ RB=9.00000E+000
+ IRB=1.00000E-006
+ RBM=9.00000E+000
+ RE=1.45426E+000
+ RC=1.57000E+000
+ EG=1.11000E+000
+ XTI=3.00000E+000
+ CJE=5.71884E-012
+ VJE=6.00000E-001
+ MJE=3.33659E-001
+ TF=1.51500E-011
+ XTF=9.96625E+002
+ VTF=2.73200E+000
+ ITF=2.75074E+000
+ CJC=2.07942E-012
+ VJC=1.99665E-001
+ MJC=1.56006E-001
+ XCJC=1.30000E-001
+ TR=2.10000E-009
+ VJS=7.50000E-001
+ FC=7.13387E-001
**********
.MODEL  BFQ168P  NPN
+ IS=1.56960E-015
+ BF=5.67649E+001
+ NF=9.80718E-001
+ VAF=3.09555E+001
+ IKF=9.93475E+000
+ ISE=2.27232E-013
+ NE=1.85087E+000
+ BR=8.91658E+001
+ NR=9.84794E-001
+ VAR=4.80825E+000
+ IKR=6.99865E+000
+ ISC=7.54672E-015
+ NC=1.12261E+000
+ RB=1.00000E+001
+ IRB=1.00000E-006
+ RBM=1.00000E+001
+ RE=2.65455E-001
+ RC=2.90000E-001
+ EG=1.11000E+000
+ XTI=3.00000E+000
+ CJE=2.13600E-011
+ VJE=8.21900E-001
+ MJE=4.06200E-001
+ TF=1.39273E-011
+ XTF=6.00000E+000
+ VTF=8.00153E+000
+ ITF=3.45649E+000
+ CJC=8.52200E-012
+ VJC=6.67600E-001
+ MJC=4.00800E-001
+ XCJC=2.50000E-001
+ TR=4.39191E-009
+ VJS=7.50000E-001
+ FC=8.03534E-001
**********
.MODEL  BFQ195P  NPN
+ IS=1.97217E-015
+ BF=1.50000E+002
+ NF=9.90823E-001
+ VAF=5.47229E+001
+ IKF=3.00000E+001
+ ISE=4.78220E-014
+ NE=1.58002E+000
+ BR=1.65412E+002
+ NR=9.93986E-001
+ VAR=2.35124E+000
+ IKR=9.96750E+000
+ ISC=3.51001E-015
+ NC=1.12472E+000
+ RB=5.00000E+000
+ IRB=1.00000E-006
+ RBM=5.00000E+000
+ RE=3.68182E-001
+ RC=9.37200E-001
+ EG=1.11000E+000
+ XTI=3.00000E+000
+ CJE=3.38837E-012
+ VJE=6.00000E-001
+ MJE=3.02953E-001
+ TF=1.10683E-011
+ XTF=3.00256E+001
+ VTF=1.64951E+000
+ ITF=4.01991E-001
+ CJC=1.19014E-012
+ VJC=1.60156E-001
+ MJC=8.94442E-002
+ XCJC=1.30000E-001
+ TR=2.14856E-009
+ VJS=7.50000E-001
+ FC=7.85943E-001
**********
.MODEL  BFQ234P   NPN
+ IS=1.58441E-015
+ BF=4.20358E+001
+ NF=9.91976E-001
+ VAF=2.20638E+002
+ IKF=2.00000E+002
+ ISE=8.19560E-014
+ NE=1.43769E+000
+ BR=1.00000E+000
+ NR=1.00000E+000
+ VAR=3.00000E+000
+ NC=2.00000E+000
+ RB=5.00000E+000
+ IRB=1.00000E-006
+ RBM=5.00000E+000
+ RE=1.29939E+000
+ RC=8.00000E+000
+ EG=1.11000E+000
+ XTI=3.00000E+000
+ CJE=1.83381E-011
+ VJE=6.00000E-001
+ MJE=2.76425E-001
+ TF=7.00000E-011
+ XTF=5.00000E+001
+ VTF=1.00000E+000
+ ITF=3.50000E-001
+ PTF=2.00000E+001
+ CJC=3.09282E-012
+ VJC=4.45253E-001
+ MJC=3.43258E-001
+ XCJC=2.10000E-001
+ CJS=2.00000E-012
+ VJS=7.50000E-001
+ MJS=0.00000E-000
+ FC=7.52685E-001
**********
.MODEL  BFQ254P   PNP
+ IS=2.39998E-015
+ BF=3.28282E+001
+ NF=9.97204E-001
+ VAF=1.07842E+002
+ IKF=9.69923E-001
+ ISE=4.62168E-014
+ NE=1.47255E+000
+ BR=1.00000E+000
+ NR=1.00000E+000
+ VAR=3.00000E+000
+ NC=2.00000E+000
+ RB=5.00000E+000
+ IRB=1.00000E-006
+ RBM=5.00000E+000
+ RE=9.58788E-001
+ RC=1.00000E+001
+ EG=1.11000E+000
+ XTI=3.00000E+000
+ CJE=1.21572E-011
+ VJE=6.00000E-001
+ MJE=2.91315E-001
+ TF=1.15000E-010
+ XTF=1.00000E+002