* Library of PHILIPS RF bipolar transistors                           
* $Revision:   1.0.1.0  $
* $Author:   rbuhescu  $
* $Date:   04 Aug 1997 10:49:14  $
*
*---------------------------------------------------------------
*
* This data is intended for use by customers in the design of electrical 
* circuits using PHILIPS semiconductors.  The usual care has been taken, 
* first, in generating the data, and second, in transcribing into  the 
* data disk.  However, no responsibility for inaccuracies can be assumed 
* by PHILIPS.  PHILIPS does not assume any liability arising out of the 
* use of the data or circuits built therefrom; neither does it convey any
* license under its patent rights nor the rights of others.
* 
* PHILIPS reserves the right to make changes without further notice to 
* any product described in the part herein to improve reliability, 
* function or design.
* 
* Philips Semiconductors
* Business Group Transistors & Diodes
* attention: Mr. P. Swinkels
* Building BY 3.014
* Gerstweg 2
* 6534 AE  Nijmegen
* The Netherlands
* Fax:  +31-24-3532901* BF547 SPICE MODEL
*
*-------------------------------------------------------------------
*$ 
*
* PHILIPS SEMICONDUCTORS
* Date : September 1995
*
* PACKAGE : SOT23 DIE MODEL : BF547
* 1: COLLECTOR; 2: BASE; 3: EMITTER;
.SUBCKT BF547/PLP 1 2 3
Q1 6 5 7 7 BF547
* SOT23 parasitic model
               Lb  4 5 .4n 
               Le  7 8 .83n
               L1  2 4 .35n
               L2  1 6 .17n
               L3  3 8 .35n
              Ccb  4 6 71f
              Cbe  4 8 71f
*
* PHILIPS SEMICONDUCTORS                                     Version:     1.0
* Filename:    BF547.PRM                                     Date: March 1992
*
.MODEL  BF547   NPN
+              IS = 2.89100E-016
+              BF = 9.42900E+001
+              NF = 9.89200E-001
+             VAF = 9.00000E+001
+             IKF = 1.58600E-001
+             ISE = 4.26600E-016
+              NE = 1.49100E+000
+              BR = 1.23200E+001
+              NR = 9.89400E-001
+             VAR = 1.93900E+001
+             IKR = 2.47500E-002
+             ISC = 2.49700E-014
+              NC = 1.20000E+000
+              RB = 5.00000E+001
+             IRB = 1.00000E-006
+             RBM = 5.00000E+001
+              RE = 5.00000E-001
+              RC = 1.30900E+000
+              EG = 1.11000E+000
+             XTI = 3.00000E+000
+             CJE = 1.07100E-012
+             VJE = 7.27300E-001
+             MJE = 3.32100E-001
+              TF = 9.29800E-011
+             XTF = 4.38900E+001
+             VTF = 1.81300E+000
+             ITF = 1.43900E-001
+             CJC = 1.16700E-012
+             VJC = 4.89000E-001
+             MJC = 2.52700E-001
.ENDS
*
*$
*---------------------------------------------------------------------------
*
* BF547W SPICE MODEL
* PHILIPS SEMICONDUCTORS
* Date : September 1995
*
* PACKAGE : SOT323 DIE MODEL : BF547
* 1: COLLECTOR; 2: BASE; 3: EMITTER
.SUBCKT BF547W/PLP 1 2 3
Q1 6 5 7 7 BF547
* SOT323 parasitic model
               Lb  4 5 .6n 
               Le  7 8 .6n
               L1  2 4 .34n
               L2  1 6 .1n
               L3  3 8 .34n
              Ccb  4 6 100f
              Cbe  4 8 2f
*
* PHILIPS SEMICONDUCTORS                                     Version:     1.0
* Filename:    BF547.PRM                                     Date: March 1992
*
.MODEL  BF547   NPN
+              IS = 2.89100E-016
+              BF = 9.42900E+001
+              NF = 9.89200E-001
+             VAF = 9.00000E+001
+             IKF = 1.58600E-001
+             ISE = 4.26600E-016
+              NE = 1.49100E+000
+              BR = 1.23200E+001
+              NR = 9.89400E-001
+             VAR = 1.93900E+001
+             IKR = 2.47500E-002
+             ISC = 2.49700E-014
+              NC = 1.20000E+000
+              RB = 5.00000E+001
+             IRB = 1.00000E-006
+             RBM = 5.00000E+001
+              RE = 5.00000E-001
+              RC = 1.30900E+000
+              EG = 1.11000E+000
+             XTI = 3.00000E+000
+             CJE = 1.07100E-012
+             VJE = 7.27300E-001
+             MJE = 3.32100E-001
+              TF = 9.29800E-011
+             XTF = 4.38900E+001
+             VTF = 1.81300E+000
+             ITF = 1.43900E-001
+             CJC = 1.16700E-012
+             VJC = 4.89000E-001
+             MJC = 2.52700E-001
.ENDS
*
*$
*---------------------------------------------------------------------------
*
* BFC505 SPICE MODEL
* PHILIPS SEMICONDUCTORS
* Date : September 1995
*
* PACKAGE : SOT353A DIE MODEL : BFR505
* 1: COLLECTOR1; 2: BASE1; 3: EMITTER1; 4: COLLECTOR2; 5: BASE2
.SUBCKT BFC505/PLP 1 2 3 4 5
Q1 6 7 8 8 BFR505
Q2 9 10 11 11 BFR505
* SOT353A parasitic model
               Lb1      7  13 .5n 
               Lb2     10  12 .5n
               Le1      8  14 .8n 
               Le2      6  11 .8n
               Lp1      2  13 .4n
               Lp2      5  12 .4n
               Lp3      4   9 .4n
               Lp4      1   6 .4n
               Lp5      3  14 .4n
               Cc1e2b1  1   2 36f
               Cc1e2b2  1   5 2f
               Cc1e2e1  1   3 35f
               Cc1e2c2  1   4 15f 
               Cc2b1    4   2 2f
               Cc2e1    4   3 35f
               Cc2b2    4   5 36f
               Cb2b1    5   2 3.5f
               Cb2e1    5   3 35f
               Cb1e1    2   3 35f
               Mlb1le1  Lb1 Le2 .4n
*
* PHILIPS SEMICONDUCTORS                                     Version:   1.0
* Filename:   BFR505.PRM                                     Date: Feb 1992
*
.MODEL  BFR505   NPN
+              IS = 1.34186E-016
+              BF = 1.80000E+002
+              NF = 9.88285E-001
+             VAF = 3.83491E+001
+             IKF = 1.50000E-001
+             ISE = 2.78188E-014
+              NE = 2.05149E+000
+              BR = 5.51997E+001
+              NR = 9.82213E-001
+             VAR = 2.45944E+000
+             IKR = 2.92072E-003
+             ISC = 1.74527E-017
+              NC = 1.06245E+000
+              RB = 2.00000E+001
+             IRB = 1.00000E-006
+             RBM = 2.00000E+001
+              RE = 1.17190E+000
+              RC = 4.35000E+000
+              EG = 1.11000E+000
+             XTI = 3.00000E+000
+             CJE = 2.84731E-013
+             VJE = 6.00000E-001
+             MJE = 3.03697E-001
+              TF = 7.03759E-012
+             XTF = 1.23460E+001
+             VTF = 1.70189E+000
+             ITF = 3.06496E-002
+             CJC = 2.42404E-013
+             VJC = 1.88622E-001
+             MJC = 4.14981E-002
.ENDS
*
*$
*---------------------------------------------------------------------------
*
* BFC520 SPICE MODEL
* PHILIPS SEMICONDUCTORS
* Date : September 1995
*
* PACKAGE : SOT353A DIE MODEL : BFR520
* 1: COLLECTOR1; 2: BASE1; 3: EMITTER1; 4: COLLECTOR2; 5: BASE2
.SUBCKT BFC520/PLP 1 2 3 4 5
Q1 6 7 8 8 BFR520
Q2 9 10 11 11 BFR520
* SOT353A parasitic model
               Lb1      7  13 .5n 
               Lb2     10  12 .5n
               Le1      8  14 .8n 
               Le2      6  11 .8n
               Lp1      2  13 .4n
               Lp2      5  12 .4n
               Lp3      4   9 .4n
               Lp4      1   6 .4n
               Lp5      3  14 .4n
               Cc1e2b1  1   2 36f
               Cc1e2b2  1   5 2f
               Cc1e2e1  1   3 35f
               Cc1e2c2  1   4 15f 
               Cc2b1    4   2 2f
               Cc2e1    4   3 35f
               Cc2b2    4   5 36f
               Cb2b1    5   2 3.5f
               Cb2e1    5   3 35f
               Cb1e1    2   3 35f
               Mlb1le1  Lb1 Le2 .4n
*
* PHILIPS SEMICONDUCTORS                                     Version:   1.0
* Filename:   BFR520.PRM                                     Date: Feb 1992
*
.MODEL  BFR520   NPN
+              IS = 1.01677E-015
+              BF = 2.20182E+002
+              NF = 1.00065E+000
+             VAF = 4.80619E+001
+             IKF = 5.10042E-001
+             ISE = 2.83095E-013
+              NE = 2.03568E+000
+              BR = 1.00714E+002
+              NR = 9.88109E-001
+             VAR = 1.69288E+000
+             IKR = 2.35262E-003
+             ISC = 2.44898E-017
+              NC = 1.02256E+000
+              RB = 1.00000E+001
+             IRB = 1.00000E-006
+             RBM = 1.00000E+001
+              RE = 7.75349E-001
+              RC = 2.21000E+000
+              EG = 1.11000E+000
+             XTI = 3.00000E+000
+             CJE = 1.24548E-012
+             VJE = 6.00000E-001
+             MJE = 2.58153E-001
+              TF = 8.61625E-012
+             XTF = 6.78866E+000
+             VTF = 1.41469E+000
+             ITF = 1.10365E-001
+             PTF = 4.50197E+001
+             CJC = 4.47646E-013
+             VJC = 1.89234E-001
.ENDS
*
*$
*---------------------------------------------------------------------------
*
* BFC540 SPICE MODEL
* PHILIPS SEMICONDUCTORS
* Date : September 1995
*
* PACKAGE : SOT353A DIE MODEL : BFR540
* 1: COLLECTOR1; 2: BASE1; 3: EMITTER1; 4: COLLECTOR2; 5: BASE2
.SUBCKT BFC540/PLP 1 2 3 4 5
Q1 6 7 8 8 BFR540
Q2 9 10 11 11 BFR540
* SOT353A parasitic model
               Lb1      7  13 .5n 
               Lb2     10  12 .5n
               Le1      8  14 .8n 
               Le2      6  11 .8n
               Lp1      2  13 .4n
               Lp2      5  12 .4n
               Lp3      4   9 .4n
               Lp4      1   6 .4n
               Lp5      3  14 .4n
               Cc1e2b1  1   2 36f
               Cc1e2b2  1   5 2f
               Cc1e2e1  1   3 35f
               Cc1e2c2  1   4 15f 
               Cc2b1    4   2 2f
               Cc2e1    4   3 35f
               Cc2b2    4   5 36f
               Cb2b1    5   2 3.5f
               Cb2e1    5   3 35f
               Cb1e1    2   3 35f
               Mlb1le1  Lb1 Le2 .4n
*
* PHILIPS SEMICONDUCTORS                                     Version:   1.0
* Filename:   BFR540.PRM                                     Date: Feb 1992
*
.MODEL  BFR540   NPN
+              IS = 1.04516E-015
+              BF = 1.84359E+002
+              NF = 9.81774E-001
+             VAF = 4.16981E+001
+             IKF = 1.00000E+001
+             ISE = 2.32436E-013
+              NE = 2.02825E+000
+              BR = 4.39917E+001
+              NR = 9.92532E-001
+             VAR = 2.09773E+000
+             IKR = 1.66296E-001
+             ISC = 1.29849E-016
+              NC = 1.06486E+000
+              RB = 5.00000E+000
+             IRB = 1.00000E-006
+             RBM = 5.00000E+000
+              RE = 3.53552E-001
+              RC = 1.34000E+000
+              EG = 1.11000E+000
+             XTI = 3.00000E+000
+             CJE = 1.97895E-012
+             VJE = 6.00000E-001
+             MJE = 3.32695E-001
+              TF = 7.45719E-012
+             XTF = 1.14072E+001
+             VTF = 3.15854E+000
+             ITF = 1.56917E-001
+             CJC = 7.93745E-013
+             VJC = 1.85522E-001
+             MJC = 8.41656E-002
.ENDS
*
*$
*---------------------------------------------------------------------------
*
* BFE505 SPICE MODEL
* PHILIPS SEMICONDUCTORS
* Date : September 1995
*
* PACKAGE : SOT353B DIE MODEL : BFR505
* 1: COLLECTOR1; 2: BASE1; 3: EMITTER; 4: COLLECTOR2; 5: BASE2
.SUBCKT BFE505/PLP 1 2 3 4 5
Q1 6 7 8 8 BFR505
Q2 9 10 11 11 BFR505
* SOT353B parasitic model
               Lb1    2  7 .8n 
               Lb2    5 10 .8n
               Le1    8 12 .6n
               Le2   11 12 .6n
               Lp1    1  6 .4n
               Lp2    4  9 .4n
               Lp3    3 12 .4n
               Cc1b1  1  2 36f
               Cc2b2  4  5 36f
               Cc1b2  1  5 2f
               Cc2b1  2  4 2f 
               Cc1e   1  3 35f
               Cc2e   3  4 35f
               Cb1b2  2  5 3.5f
               Cc1c2  1  4 15f
               Cb1e   2  3 35f
*
* PHILIPS SEMICONDUCTORS                                     Version:   1.0
* Filename:   BFR505.PRM                                     Date: Feb 1992
*
.MODEL  BFR505   NPN
+              IS = 1.34186E-016
+              BF = 1.80000E+002
+              NF = 9.88285E-001
+             VAF = 3.83491E+001
+             IKF = 1.50000E-001
+             ISE = 2.78188E-014
+              NE = 2.05149E+000
+              BR = 5.51997E+001
+              NR = 9.82213E-001
+             VAR = 2.45944E+000
+             IKR = 2.92072E-003
+             ISC = 1.74527E-017
+              NC = 1.06245E+000
+              RB = 2.00000E+001
+             IRB = 1.00000E-006
+             RBM = 2.00000E+001
+              RE = 1.17190E+000
+              RC = 4.35000E+000
+              EG = 1.11000E+000
+             XTI = 3.00000E+000
+             CJE = 2.84731E-013
+             VJE = 6.00000E-001
+             MJE = 3.03697E-001
+              TF = 7.03759E-012
+             XTF = 1.23460E+001
+             VTF = 1.70189E+000
+             ITF = 3.06496E-002
+             CJC = 2.42404E-013
+             VJC = 1.88622E-001
+             MJC = 4.14981E-002
.ENDS
*
*$
*---------------------------------------------------------------------------
*
* BFE520 SPICE MODEL
* PHILIPS SEMICONDUCTORS
* Date : September 1995
*
* PACKAGE : SOT353B DIE MODEL : BFR520
* 1: COLLECTOR1; 2: BASE1; 3: EMITTER; 4: COLLECTOR2; 5: BASE2
.SUBCKT BFE520/PLP 1 2 3 4 5
Q1 6 7 8 8 BFR520
Q2 9 10 11 11 BFR520
* SOT353B parasitic model
               Lb1    2  7 .8n 
               Lb2    5 10 .8n
               Le1    8 12 .6n
               Le2   11 12 .6n
               Lp1    1  6 .4n
               Lp2    4  9 .4n
               Lp3    3 12 .4n
               Cc1b1  1  2 36f
               Cc2b2  4  5 36f
               Cc1b2  1  5 2f
               Cc2b1  2  4 2f 
               Cc1e   1  3 35f
               Cc2e   3  4 35f
               Cb1b2  2  5 3.5f
               Cc1c2  1  4 15f
               Cb1e   2  3 35f
*
* PHILIPS SEMICONDUCTORS                                     Version:   1.0
* Filename:   BFR520.PRM                                     Date: Feb 1992
*
.MODEL  BFR520   NPN
+              IS = 1.01677E-015
+              BF = 2.20182E+002
+              NF = 1.00065E+000
+             VAF = 4.80619E+001
+             IKF = 5.10042E-001
+             ISE = 2.83095E-013
+              NE = 2.03568E+000
+              BR = 1.00714E+002
+              NR = 9.88109E-001
+             VAR = 1.69288E+000
+             IKR = 2.35262E-003
+             ISC = 2.44898E-017
+              NC = 1.02256E+000
+              RB = 1.00000E+001
+             IRB = 1.00000E-006
+             RBM = 1.00000E+001
+              RE = 7.75349E-001
+              RC = 2.21000E+000
+              EG = 1.11000E+000
+             XTI = 3.00000E+000
+             CJE = 1.24548E-012
+             VJE = 6.00000E-001
+             MJE = 2.58153E-001
+              TF = 8.61625E-012
+             XTF = 6.78866E+000
+             VTF = 1.41469E+000
+             ITF = 1.10365E-001
+             PTF = 4.50197E+001
+             CJC = 4.47646E-013
+             VJC = 1.89234E-001
.ENDS
*
*$
*---------------------------------------------------------------------------
*
* BFE540 SPICE MODEL
* PHILIPS SEMICONDUCTORS
* Date : September 1995
*
* PACKAGE : SOT353B DIE MODEL : BFR540
* 1: COLLECTOR1; 2: BASE1; 3: EMITTER; 4: COLLECTOR2; 5: BASE2
.SUBCKT BFE540/PLP 1 2 3 4 5
Q1 6 7 8 8 BFR540
Q2 9 10 11 11 BFR540
* SOT353B parasitic model
               Lb1    2  7 .8n 
               Lb2    5 10 .8n
               Le1    8 12 .6n
               Le2   11 12 .6n
               Lp1    1  6 .4n
               Lp2    4  9 .4n
               Lp3    3 12 .4n
               Cc1b1  1  2 36f
               Cc2b2  4  5 36f
               Cc1b2  1  5 2f
               Cc2b1  2  4 2f 
               Cc1e   1  3 35f
               Cc2e   3  4 35f
               Cb1b2  2  5 3.5f
               Cc1c2  1  4 15f
               Cb1e   2  3 35f
*
* PHILIPS SEMICONDUCTORS                                     Version:   1.0
* Filename:   BFR540.PRM                                     Date: Feb 1992
*
.MODEL  BFR540   NPN
+              IS = 1.04516E-015
+              BF = 1.84359E+002
+              NF = 9.81774E-001
+             VAF = 4.16981E+001
+             IKF = 1.00000E+001
+             ISE = 2.32436E-013
+              NE = 2.02825E+000
+              BR = 4.39917E+001
+              NR = 9.92532E-001
+             VAR = 2.09773E+000
+             IKR = 1.66296E-001
+             ISC = 1.29849E-016
+              NC = 1.06486E+000
+              RB = 5.00000E+000
+             IRB = 1.00000E-006
+             RBM = 5.00000E+000
+              RE = 3.53552E-001
+              RC = 1.34000E+000
+              EG = 1.11000E+000
+             XTI = 3.00000E+000
+             CJE = 1.97895E-012
+             VJE = 6.00000E-001
+             MJE = 3.32695E-001
+              TF = 7.45719E-012
+             XTF = 1.14072E+001
+             VTF = 3.15854E+000
+             ITF = 1.56917E-001
+             CJC = 7.93745E-013
+             VJC = 1.85522E-001
+             MJC = 8.41656E-002
.ENDS
*
*$
*---------------------------------------------------------------------------
*
* BFG10 SPICE MODEL
* PHILIPS SEMICONDUCTORS
* Date : September 1995
*
* PACKAGE : SOT143 DIE MODEL : BLT10
* 1: COLLECTOR; 2: BASE; 3: EMITTER;
.SUBCKT BFG10/PLP 1 2 3
Q1 6 5 7 7 BLT10
* SOT 143 parasitic model
               Lb  4 5 .95n 
               Le  7 8 .4n
               L1  2 4 .12n
               L2  1 6 .21n
               L3  3 8 .06n
              Ccb  4 6 17f
              Cbe  4 8 84f
*
* PHILIPS SEMICONDUCTORS                                 Version:         3.0
* Filename:    BLT10.PRM                                 Date: September 1993
*
.MODEL  BLT10   NPN
+              IS = 2.71400E-015
+              BF = 1.02800E+002
+              NF = 9.97900E-001
+             VAF = 2.81200E+001
+             IKF = 6.00900E+001
+             ISE = 4.03200E-010
+              NE = 2.93700E+000
+              BR = 3.10100E+001
+              NR = 9.99710E-001
+             VAR = 2.88900E+000
+             IKR = 2.84200E-001
+             ISC = 1.48700E-015
+              NC = 1.10000E+000
+              RB = 3.50000E+000
+             IRB = 1.00000E-006
+             RBM = 3.50000E+000
+              RE = 2.17500E-001
+              RC = 1.96700E-001
+              EG = 1.11000E+000
+             XTI = 3.00000E+000
+             CJE = 5.12500E-012
+             VJE = 6.00000E-001
+             MJE = 3.67700E-001
+              TF = 1.20700E-011
+             XTF = 9.94000E+001
+             VTF = 7.22000E+000
+             ITF = 3.95000E+000
+             CJC = 2.32700E-012
+             VJC = 6.68200E-001
+             MJC = 3.98300E-001
.ENDS
*
*$
*---------------------------------------------------------------------------
*
* BFG10/X SPICE MODEL
* PHILIPS SEMICONDUCTORS
* Date : September 1995
*
* PACKAGE : SOT143X DIE MODEL : BLT10
* 1: COLLECTOR; 2: BASE; 3: EMITTER;
.SUBCKT BFG10/X/PLP 1 2 3
Q1 6 5 7 7 BLT10
* SOT143X parasitic model
               Lb  4 5 .95n 
               Le  7 8 .4n
               L1  2 4 .12n
               L2  1 6 .21n
               L3  3 8 .06n
              Ccb  4 6 17f
              Cbe  4 8 84f
*
* PHILIPS SEMICONDUCTORS                                 Version:         3.0
* Filename:    BLT10.PRM                                 Date: September 1993
*
.MODEL  BLT10   NPN
+              IS = 2.71400E-015
+              BF = 1.02800E+002
+              NF = 9.97900E-001
+             VAF = 2.81200E+001
+             IKF = 6.00900E+001
+             ISE = 4.03200E-010
+              NE = 2.93700E+000
+              BR = 3.10100E+001
+              NR = 9.99710E-001
+             VAR = 2.88900E+000
+             IKR = 2.84200E-001
+             ISC = 1.48700E-015
+              NC = 1.10000E+000
+              RB = 3.50000E+000
+             IRB = 1.00000E-006
+             RBM = 3.50000E+000
+              RE = 2.17500E-001
+              RC = 1.96700E-001
+              EG = 1.11000E+000
+             XTI = 3.00000E+000
+             CJE = 5.12500E-012
+             VJE = 6.00000E-001
+             MJE = 3.67700E-001
+              TF = 1.20700E-011
+             XTF = 9.94000E+001
+             VTF = 7.22000E+000
+             ITF = 3.95000E+000
+             CJC = 2.32700E-012
+             VJC = 6.68200E-001
+             MJC = 3.98300E-001
.ENDS
*
*$
*---------------------------------------------------------------------------
*
* BFG10W/X SPICE MODEL
* PHILIPS SEMICONDUCTORS
* Date : September 1995
*
* PACKAGE : SOT343X DIE MODEL : BLT10
* 1: COLLECTOR; 2: BASE; 3: EMITTER
.SUBCKT BFG10W/X/PLP 1 2 3
Q1 6 5 7 7 BLT10
* SOT343X parasitic model
               Lb  4 5 .4n 
               Le  7 8 .4n
               L1  2 4 .34n
               L2  1 6 .1n
               L3  3 8 .25n
              Ccb  4 6 50f
              Cbe  4 8 70f
*
* PHILIPS SEMICONDUCTORS                                 Version:         3.0
* Filename:    BLT10.PRM                                 Date: September 1993
*
.MODEL  BLT10   NPN
+              IS = 2.71400E-015
+              BF = 1.02800E+002
+              NF = 9.97900E-001
+             VAF = 2.81200E+001
+             IKF = 6.00900E+001
+             ISE = 4.03200E-010
+              NE = 2.93700E+000
+              BR = 3.10100E+001
+              NR = 9.99710E-001
+             VAR = 2.88900E+000
+             IKR = 2.84200E-001
+             ISC = 1.48700E-015
+              NC = 1.10000E+000
+              RB = 3.50000E+000
+             IRB = 1.00000E-006
+             RBM = 3.50000E+000
+              RE = 2.17500E-001
+              RC = 1.96700E-001
+              EG = 1.11000E+000
+             XTI = 3.00000E+000
+             CJE = 5.12500E-012
+             VJE = 6.00000E-001
+             MJE = 3.67700E-001
+              TF = 1.20700E-011
+             XTF = 9.94000E+001
+             VTF = 7.22000E+000
+             ITF = 3.95000E+000
+             CJC = 2.32700E-012
+             VJC = 6.68200E-001
+             MJC = 3.98300E-001
.ENDS
*
*$
*---------------------------------------------------------------------------
*
* BFG11 SPICE MODEL
* PHILIPS SEMICONDUCTORS
* Date : September 1995
*
* PACKAGE : SOT143 DIE MODEL : BLT11
* 1: COLLECTOR; 2: BASE; 3: EMITTER;
.SUBCKT BFG11/PLP 1 2 3
Q1 6 5 7 7 BLT11
* SOT 143 parasitic model
               Lb  4 5 .95n 
               Le  7 8 .4n
               L1  2 4 .12n
               L2  1 6 .21n
               L3  3 8 .06n
              Ccb  4 6 17f
              Cbe  4 8 84f
*
* PHILIPS SEMICONDUCTORS                                 Version:         3.0
* Filename:    BLT11.PRM                                 Date: September 1993
*
.MODEL  BLT11   NPN
+              IS = 3.33800E-015
+              BF = 9.71400E+001
+              NF = 9.88400E-001
+             VAF = 3.14000E+001
+             IKF = 5.14500E+001
+             ISE = 2.35300E-011
+              NE = 2.38600E+000
+              BR = 1.37300E+001
+              NR = 9.88800E-001
+             VAR = 2.44800E+000
+             IKR = 1.00000E+002
+             ISC = 5.41000E-014
+              NC = 1.22400E+000
+              RB = 1.74000E+000
+             IRB = 1.00000E-006
+             RBM = 1.74000E+000
+              RE = 5.96500E-002
+              RC = 1.23800E-001
+              EG = 1.11000E+000
+             XTI = 3.00000E+000
+             CJE = 9.55500E-012
+             VJE = 6.00000E-001
+             MJE = 3.15100E-001
+              TF = 1.29600E-011
+             XTF = 4.00000E+002
+             VTF = 8.66100E-001
+             ITF = 5.94000E+000
+             CJC = 4.27400E-012
+             VJC = 6.50000E-001
+             MJC = 3.92100E-001
.ENDS
*
*$
*---------------------------------------------------------------------------
*
* BFG11/X SPICE MODEL
* PHILIPS SEMICONDUCTORS
* Date : September 1995
*
* PACKAGE : SOT143X DIE MODEL : BLT11
* 1: COLLECTOR; 2: BASE; 3: EMITTER;
.SUBCKT BFG11/X/PLP 1 2 3
Q1 6 5 7 7 BLT11
* SOT143X parasitic model
               Lb  4 5 .95n 
               Le  7 8 .4n
               L1  2 4 .12n
               L2  1 6 .21n
               L3  3 8 .06n
              Ccb  4 6 17f
              Cbe  4 8 84f
*
* PHILIPS SEMICONDUCTORS                                 Version:         3.0
* Filename:    BLT11.PRM                                 Date: September 1993
*
.MODEL  BLT11   NPN
+              IS = 3.33800E-015
+              BF = 9.71400E+001
+              NF = 9.88400E-001
+             VAF = 3.14000E+001
+             IKF = 5.14500E+001
+             ISE = 2.35300E-011
+              NE = 2.38600E+000
+              BR = 1.37300E+001
+              NR = 9.88800E-001
+             VAR = 2.44800E+000
+             IKR = 1.00000E+002
+             ISC = 5.41000E-014
+              NC = 1.22400E+000
+              RB = 1.74000E+000
+             IRB = 1.00000E-006
+             RBM = 1.74000E+000
+              RE = 5.96500E-002
+              RC = 1.23800E-001
+              EG = 1.11000E+000
+             XTI = 3.00000E+000
+             CJE = 9.55500E-012
+             VJE = 6.00000E-001
+             MJE = 3.15100E-001
+              TF = 1.29600E-011
+             XTF = 4.00000E+002
+             VTF = 8.66100E-001
+             ITF = 5.94000E+000
+             CJC = 4.27400E-012
+             VJC = 6.50000E-001
+             MJC = 3.92100E-001
.ENDS
*
*$
*---------------------------------------------------------------------------
*
* BFG11W/X SPICE MODEL
* PHILIPS SEMICONDUCTORS
* Date : September 1995
*
* PACKAGE : SOT343X DIE MODEL : BLT11
* 1: COLLECTOR; 2: BASE; 3: EMITTER
.SUBCKT BFG11W/X/PLP 1 2 3
Q1 6 5 7 7 BLT11
* SOT343X parasitic model
               Lb  4 5 .4n 
               Le  7 8 .4n
               L1  2 4 .34n
               L2  1 6 .1n
               L3  3 8 .25n
              Ccb  4 6 50f
              Cbe  4 8 70f
*
* PHILIPS SEMICONDUCTORS                                 Version:         3.0
* Filename:    BLT11.PRM                                 Date: September 1993
*
.MODEL  BLT11   NPN
+              IS = 3.33800E-015
+              BF = 9.71400E+001
+              NF = 9.88400E-001
+             VAF = 3.14000E+001
+             IKF = 5.14500E+001
+             ISE = 2.35300E-011
+              NE = 2.38600E+000
+              BR = 1.37300E+001
+              NR = 9.88800E-001
+             VAR = 2.44800E+000
+             IKR = 1.00000E+002
+             ISC = 5.41000E-014
+              NC = 1.22400E+000
+              RB = 1.74000E+000
+             IRB = 1.00000E-006
+             RBM = 1.74000E+000
+              RE = 5.96500E-002
+              RC = 1.23800E-001
+              EG = 1.11000E+000
+             XTI = 3.00000E+000
+             CJE = 9.55500E-012
+             VJE = 6.00000E-001
+             MJE = 3.15100E-001
+              TF = 1.29600E-011
+             XTF = 4.00000E+002
+             VTF = 8.66100E-001
+             ITF = 5.94000E+000
+             CJC = 4.27400E-012
+             VJC = 6.50000E-001
+             MJC = 3.92100E-001
.ENDS
*
*$
*---------------------------------------------------------------------------
*
* BFG16A SPICE MODEL
* PHILIPS SEMICONDUCTORS
* Date : September 1995
*
* PACKAGE : SOT223A DIE MODEL : BFW16A
* 1: COLLECTOR; 2: BASE; 3: EMITTER;
.SUBCKT BFG16A/PLP 1 2 3
Q1 6 5 7 7 BFW16A
* SOT223A parasitic model
               Lb  4 5 1.5n 
               Le  7 8 .5n
               L1  2 4 .025n
               L2  1 6 1.19n
               L3  3 8 .6n
              Ccb  4 6 16f
              Cbe  4 8 182f
*
* PHILIPS SEMICONDUCTORS                                        Version:    3.0
* Filename:   BFW16A.PRM                                        Date:March 1993
*
.MODEL  BFW16A   NPN
+              IS = 2.38723E-015
+              BF = 8.60000E+001
+              NF = 9.92505E-001
+             VAF = 4.80000E+001
+             IKF = 8.00000E-001
+             ISE = 5.46670E-011
+              NE = 2.15243E+000
+              BR = 8.00000E+000
+              NR = 9.86531E-001
+             VAR = 1.00990E+001
+             IKR = 7.53676E-002
+             ISC = 9.71537E-015
+              NC = 1.17989E+000
+              RB = 2.00000E+000
+             IRB = 1.00000E-006
+             RBM = 2.00000E+000
+              RE = 5.00000E-002
+              RC = 7.65100E-001
+              EG = 1.11000E+000
+             XTI = 3.00000E+000
+             CJE = 8.13827E-012
+             VJE = 6.00000E-001
+             MJE = 2.72002E-001
+              TF = 8.77730E-011
+             XTF = 2.43638E+000
+             VTF = 6.41428E-001
+             ITF = 1.77271E-001
+             PTF = 1.00000E+001
+             CJC = 5.37854E-012
+             VJC = 5.68500E-001
.ENDS
*
*$
*---------------------------------------------------------------------------
*
* BFG25AW SPICE MODEL
* PHILIPS SEMICONDUCTORS
* Date : September 1995
*
* PACKAGE : SOT343 DIE MODEL : BFT25A
* 1: COLLECTOR; 2: BASE; 3: EMITTER
.SUBCKT BFG25AW/PLP 1 2 3
Q1 6 5 7 7 BFT25A
* SOT343 parasitic model
               Lb  4 5 .4n 
               Le  7 8 .4n
               L1  2 4 .34n
               L2  1 6 .1n
               L3  3 8 .25n
              Ccb  4 6 50f
              Cbe  4 8 70f
*
* PHILIPS SEMICONDUCTORS                                     Version:   1.0
* Filename:   BFT25A.PRM                                     Date: Feb 1992
*
.MODEL  BFT25A   NPN
+              IS = 1.37749E-017
+              BF = 8.56539E+001
+              NF = 9.79900E-001
+             VAF = 5.08049E+001
+             IKF = 1.00000E+001
+             ISE = 2.19977E-015
+              NE = 1.85715E+000
+              BR = 1.69751E+001
+              NR = 9.85511E-001
+             VAR = 2.49144E+000
+             IKR = 1.88014E-001
+             ISC = 2.05160E-016
+              NC = 1.10731E+000
+              RB = 8.00000E+001
+             IRB = 1.00000E-006
+             RBM = 8.00000E+001