**********
* Copyright Intusoft 1988-1997
* All Rights Reserved
**********
**********
*SRC=2N5430;QN5430;BJTs NPN;Power;100V 7A 
*SYM=POWBJTN
.SUBCKT QN5430 1 2 3
Q1 1 2 3 QPWR .67
Q2 1 4 3 QPWR .33
RBS  2 4  18 
.MODEL QPWR NPN (IS=5.16E-13 NF=1.0 BF=260  VAF=180 
+ IKF=2.3E+00 ISE=1.73E-10 NE=2.0 BR=4  NR=1.0 VAR=24 
+ XTB=1.5 RE=1.9E-02 RB=7.5E-02 RC=7.5E-03
+ CJE=9.30E-10 CJC=4.0E-10 TF=3.2E-09 TR=6.1E-07)
+ MJE=.31 VJE=.677 MJC=.33 VJC=.255
.ENDS
**********
*SRC=2N3879;QN3879;BJTs NPN;Power;100V 7A
*SYM=POWBJTN
.SUBCKT QN3879 1 2 3
Q1 1 2 3 QPWR .67
Q2 1 4 3 QPWR .33
RBS  2 4  18 
.MODEL QPWR NPN (IS=5.16E-13 NF=1.0 BF=260  VAF=180 
+ IKF=2.3E+00 ISE=1.73E-10 NE=2.0 BR=4  NR=1.0 VAR=24 
+ XTB=1.5 RE=1.9E-02 RB=7.5E-02 RC=7.5E-03
+ CJE=9.30E-10 CJC=4.0E-10 TF=3.2E-09 TR=6.1E-07)
+ MJE=.31 VJE=.677 MJC=.33 VJC=.255
.ENDS
**********
*SRC=TIP47;TIP47;BJTs NPN;Power;250V 1A
*SYM=POWBJTN
.SUBCKT TIP47    1 2 3
*    TERMINALS:  C B E
Q1 1 2 3  QPWR .67
Q2 1 4 3  QPWR .33
RBS  2 4  7.7
.MODEL QPWR NPN (IS=147F NF=1 BF=39 VAF=284 IKF=1.5
+ ISE=495P NE=2 BR=4 NR=1 VAR=20 IKR=2.25 RE=.165 RB=.663
+ RC=66.3M XTB=1.5 CJE=32.9P CJC=23.5P TF=10.8N TR=4.95U)
.ENDS
*   250 Volt  1 Amp  SiNPN  Power Transistor  02-01-1991
**********
*SRC=2N6833;QN6833;BJTs NPN;Power;450V 5A
*SYM=POWBJTN
.SUBCKT QN6833   1 2 3
*    TERMINALS:  C B E
Q1 1 2 3  QPWR .67 
Q2 1 4 3  QPWR .33
RBS  2 4  4.5
.MODEL QPWR NPN (IS=368F NF=1 BF=39 VAF=382 IKF=4 ISE=1.28N NE=2
+ BR=4 NR=1 VAR=24 IKR=6 RE=66.3M RB=.265 RC=26.5M XTB=1.5
+ CJE=1062P VJE=.6 MJE=.5 CJC=505P VJC=.5 MJC=.3 TF=15.6N TR=248N)
.ENDS 
*   450 Volt  5 Amp  SiNPN  Power Transistor  01-27-1993
**********
*SRC=2N6836;QN6836;BJTs NPN;Power;450V 15A
*SYM=POWBJTN
.SUBCKT QN6836   1 2 3
*    TERMINALS:  C B E
Q1 1 2 3  QPWR .67
Q2 1 4 3  QPWR .33
RBS  2 4  4.5
.MODEL QPWR NPN (IS=18.4P NF=1 BF=27.3 VAF=381 IKF=8.5
+ ISE=18.8N NE=2 BR=4 NR=1 VAR=24 IKR=12.7 RE=.148 RB=.592
+ RC=59.2M XTB=1.5 CJE=6.87N CJC=650P TF=5.78N TR=2.97U)
.ENDS
*   450 Volt  15 Amp  SiNPN  Power Transistor  01-11-1991
**********
*SRC=MJ15001;MJ15001;BJTs NPN;Power;140V 15A
*SYM=POWBJTN
.SUBCKT MJ15001  1 2 3
*    TERMINALS:  C B E
*  140 Volt  15 Amp  SiNPN  Power Transistor  08-16-1995
Q1 1 2 3  QPWR .67
Q2 1 4 3  QPWR .33
RBS  2 4  13.3
.MODEL QPWR NPN (IS=1.1P NF=1 BF=130 VAF=213 IKF=2.8 ISE=556P NE=2
+ BR=4 NR=1 VAR=20 IKR=4.2 RE=22.1M RB=88.4M RC=8.84M XTB=1.5
+ CJE=481P VJE=.6 MJE=.3 CJC=312P VJC=.22 MJC=.2 TF=53N TR=2.04U)
.ENDS
*  MJ15001, MOTOROLA BIPOLAR POWER TRANSISTOR DATA BOOK,
* Q1/89, P.3-710
**********
*SRC=MJ15002;MJ15002;BJTs PNP;Power;140V 15A
*SYM=POWBJTP
.SUBCKT MJ15002  1 2 3
*    TERMINALS:  C B E
*  140 Volt  15 Amp  SiPNP  Power Transistor  08-16-1995
Q1 1 2 3  QPWR .67
Q2 1 4 3  QPWR .33
RBS  2 4  13.3
.MODEL QPWR PNP (IS=1.1P NF=1 BF=113 VAF=213 IKF=4.2 ISE=783P NE=2
+ BR=4 NR=1 VAR=20 IKR=6.3 RE=22.1M RB=88.4M RC=8.84M XTB=1.5
+ CJE=1.09N VJE=.6 MJE=.3 CJC=708P VJC=.22 MJC=.2 TF=17.4N TR=672N)
.ENDS
*  MJ15002, MOTOROLA BIPOLAR POWER TRANSISTOR DATA BOOK,
* Q1/89, P.3-710
**********
*SRC=MJ15022;MJ15022;BJTs NPN;Power;200V 16A
*SYM=POWBJTN
.SUBCKT MJ15022 1 2 3
*  200 Volt  16 Amp  SiNPN  Power Transistor  08-16-1995
Q1 1 2 3  QPWR .67
Q2 1 4 3  QPWR .33
RBS  2 4  9.5
.MODEL QPWR NPN (IS=1.17P NF=1 BF=110 VAF=254 IKF=6 ISE=990P NE=2
+ BR=4 NR=1 VAR=20 IKR=9 RE=.123 RB=.495 RC=49.5M XTB=1.5
+ CJE=3.88N VJE=.6 MJE=.3 CJC=490P VJC=.22 MJC=.2 TF=39.7N TR=1.53U)
.ENDS
*  MJ15022, MOTOROLA BIPOLAR POWER TRANSISTOR DATA BOOK,
* Q1/89, P.3-720
**********
*SRC=MJ15023;MJ15023;BJTs PNP;Power;200V 16A
*SYM=POWBJTP
.SUBCKT MJ15023  1 2 3
*    TERMINALS:  C B E
*  200 Volt  16 Amp  SiPNP  Power Transistor  08-16-1995
Q1 1 2 3  QPWR .67
Q2 1 4 3  QPWR .33
RBS  2 4  9.5
.MODEL QPWR PNP (IS=1.17P NF=1 BF=102 VAF=254 IKF=5 ISE=972P NE=2
+ BR=4 NR=1 VAR=20 IKR=7.5 RE=.123 RB=.495 RC=49.5M XTB=1.5
+ CJE=4.58N VJE=.6 MJE=.3 CJC=942P VJC=.22 MJC=.2 TF=39.7N TR=1.53U)
.ENDS
*  MJ15023, MOTOROLA BIPOLAR POWER TRANSISTOR DATA BOOK,
* Q1/89, P.3-723
**********
*SRC=MJ2955;MJ2955;BJTs PNP;Power;60V 15A
*SYM=POWBJTP
.SUBCKT MJ2955 1 2 3
*    TERMINALS:  C B E
Q1 1 2 3  QPWR .67
Q2 1 4 3  QPWR .33
RBS  2 4  30 
.MODEL QPWR PNP (IS=7.37E-13 NF=1.0 BF=156 VAF=139
+ IKF=2.0E+00 ISE=2.53E-10 NE=2.0 BR=4  NR=1.0 VAR=28
+ XTB=1.5 RE=1.5E-01 RB=5.9E-01 RC=5.9E-02
+ CJE=1030P CJC=736P TF=4.0E-08 TR=7.6E-06
+ MJE=.363 VJE=.633 MJC=.361 VJC=.542
.ENDS
*   60 Volt  15.0 Amp  SiPNP  Power Transistor  05-25-1990
**********
*SRC=BU406D;BU406D;BJTs NPN;Power;200V 7A
*SYM=POWBJTN
.SUBCKT BU406D   1 2 3
*    TERMINALS:  C B E
Q1 1 2 3  QPWR .67
Q2 1 4 3  QPWR .33
RBS  2 4  9.5
.MODEL QPWR NPN (IS=362N NF=1 BF=88.4 VAF=254 IKF=4.5
+ ISE=593N NE=2 BR=4 NR=1 VAR=20 IKR=6.75 RE=96.3M RB=.385
+ RC=38.5M XTB=1.5 CJE=269P CJC=192P TF=13.2N TR=742N)
.ENDS
*   200 Volt  7 Amp  SiNPN  Power Transistor  01-10-1991
**********
*SRC=BU326;BU326;BJTs NPN;Power;375V 6A
*SYM=POWBJTN
.SUBCKT BU326    1 2 3
*    TERMINALS:  C B E
Q1 1 2 3  QPWR .67
Q2 1 4 3  QPWR .33
RBS  2 4  5.3
.MODEL QPWR NPN (IS=4.60P NF=1 BF=45.5 VAF=348 IKF=3
+ ISE=3.35N NE=2 BR=4 NR=1 VAR=40 IKR=4.5 RE=.370 RB=1.48
+ RC=.148 XTB=1.5 CJE=183P CJC=131P TF=26.4N TR=7.42U)
.ENDS
*   375 Volt  6 Amp  SiNPN  Power Transistor  01-11-1991
**********
*SRC=MJ13330;MJ13330;BJTs NPN;Power;200V 20A
*SYM=POWBJTN
.SUBCKT MJ13330   1 2 3
*    TERMINALS:  C B E
Q1 1 2 3  QPWR .67
Q2 1 4 3  QPWR .33
RBS  2 4  9.5
.MODEL QPWR NPN (IS=736F NF=1 BF=62.4 VAF=254 IKF=6.5
+ ISE=1.44N NE=2 BR=4 NR=1 VAR=24 IKR=9.75 RE=.123 RB=.492
+ RC=49.2M XTB=1.5 CJE=731P CJC=522P TF=11.3N TR=1.73U)
.ENDS
*   200 Volt  20 Amp  SiNPN  Power Transistor  01-15-1991
**********
*SRC=MJ13333;MJ13333;BJTs NPN;Power;400V 20A
*SYM=POWBJTN
.SUBCKT MJ13333  1 2 3
*    TERMINALS:  C B E
Q1 1 2 3  QPWR .67
Q2 1 4 3  QPWR .33
RBS  2 4  5
.MODEL QPWR NPN (IS=736F NF=1 BF=41.6 VAF=360 IKF=5
+ ISE=1.89N NE=2 BR=4 NR=1 VAR=24 IKR=7.5 RE=.118 RB=.472
+ RC=47.2M XTB=1.5 CJE=2.87N CJC=658P TF=11.3N TR=3.96U)
.ENDS
*   400 Volt  20 Amp  SiNPN  Power Transistor  01-15-1991
**********
*SRC=BSW67;BSW67;BJTs NPN;Power;120V 2A
*SYM=POWBJTN
.SUBCKT BSW67    1 2 3
*    TERMINALS:  C B E
Q1 1 2 3  QPWR .67
Q2 1 4 3  QPWR .33
RBS  2 4  15.5
.MODEL QPWR NPN (IS=1.50P NF=1 BF=104 VAF=197 IKF=1.5 RBM=.036
+ ISE=593P NE=2 BR=4 NR=1 VAR=24 IKR=2.25 RE=50.7M RB=6.3
+ RC=36.3M XTB=1.5 CJE=7.002N CJC=85P TF=1.98N TR=900N IRB=20M)
.ENDS
*   120 Volt  2 Amp  SiNPN  Power Transistor  06-13-1991
**********
*SRC=BSW68;BSW68;BJTs NPN;Power;150V 2A
*SYM=POWBJTN
.SUBCKT BSW68    1 2 3
*    TERMINALS:  C B E
Q1 1 2 3  QPWR .67
Q2 1 4 3  QPWR .33
RBS  2 4  12.5
.MODEL QPWR NPN (IS=1.50P NF=1 BF=104 VAF=220 IKF=1.5 RBM=.046
+ ISE=593P NE=2 BR=4 NR=1 VAR=24 IKR=2.25 RE=50.7M RB=.463
+ RC=46.3M XTB=1.5 CJE=7N CJC=85P TF=1.98N TR=900N IRB=30M)
.ENDS
*   150 Volt  2 Amp  SiNPN  Power Transistor  06-13-1991
**********
*SRC=BU208D;BU208D;BJTs NPN;Power;1500V 8A
*SYM=POWBJTN
.SUBCKT BU208D   1 2 3
*    TERMINALS:  C B E
Q1 1 2 3  QPWR .67
Q2 1 4 3  QPWR .33
RBS  2 4  1.7
.MODEL QPWR NPN (IS=516F NF=1 BF=36.1 VAF=697 IKF=1.55 RBM=.012
+ ISE=78.6P NE=2 BR=4 NR=1 VAR=40 IKR=2.32 RE=61.3M RB=12.5
+ RC=120.5M XTB=1.5 CJE=243P CJC=174P TF=22.7N TR=17.3U IRB=.08)
.ENDS
*   1500 Volt  8 Amp  SiNPN  Power Transistor  06-13-1991
**********
*SRC=BUT92A;BUT92A;BJTs NPN;Power;300V 50A
*SYM=POWBJTN
.SUBCKT BUT92A   1 2 3
*    TERMINALS:  C B E
Q1 1 2 3  QPWR .67
Q2 1 4 3  QPWR .33
RBS  2 4  6.5
MODEL QPWR NPN (IS=647F NF=1 BF=58.5 VAF=311 IKF=2
+ ISE=2.88N NE=2 BR=4 NR=1 VAR=28 IKR=39 RE=29.6M RB=58.5M
+ RC=58.5M XTB=1.5 CJE=1.45N CJC=1.07N TF=31.8N TR=4.95U)
.ENDS
*   300 Volt  50 Amp  SiNPN  Power Transistor  06-13-1991
**********
*SRC=BUX21;BUX21;BJTs NPN;Power;200V 7A
*SYM=POWBJTN
.SUBCKT BUX21    1 2 3
*    TERMINALS:  C B E
Q1 1 2 3  QPWR .67
Q2 1 4 3  QPWR .33
RBS  2 4  9.5
.MODEL QPWR NPN (IS=878F NF=1 BF=65 VAF=254 IKF=50 RBM=.01
+ ISE=4.19N NE=2 BR=4 NR=1 VAR=28 IKR=75 RE=8.15M RB=32.6
+ RC=13.26M XTB=1.5 CJE=1.85N CJC=15.32N TF=10.83N TR=1.23U IRB=.007)
.ENDS
*   200 Volt  7 Amp  SiNPN  Power Transistor  06-13-1991
**********
*SRC=BD905;BD905;BJTs NPN;Power;40V 15A
*SYM=POWBJTN
.SUBCKT BD905    1 2 3
*    TERMINALS:  C B E
Q1 1 2 3  QPWR .67
Q2 1 4 3  QPWR .33
RBS  2 4  40.5
.MODEL QPWR NPN (IS=736F NF=1 BF=100 VAF=120 IKF=2
+ ISE=38.3P NE=2 BR=4 NR=1 VAR=20 IKR=3 RE=98.1M RB=.392
+ RC=39.2M XTB=1.5 CJE=360P CJC=313P TF=31.8N TR=2.47U)
.ENDS
*   45 Volt  15 Amp  SiNPN  Power Transistor  06-13-1991
**********
*SRC=2N242;QN242;BJTs PNP;Power;35V 5A Germanium
.MODEL QN242 PNP (IS=524N NF=1 BF=156 VAF=106 IKF=3
+ ISE=330N NE=2 BR=4 NR=1 VAR=40 IKR=4.5 RE=.190 RB=.763
+ RC=76.3M XTB=1.5 CJE=1.07N CJC=315P TF=31.8U TR=437N)
*   35 Volt  5 Amp  5M MHz  GePNP  Transistor  02-20-1991
**********
*SRC=2N3054A;QN3054A;BJTs NPN;Power;55V 4A
.MODEL QN3054A NPN (IS=212F NF=1 BF=91 VAF=133 IKF=750M ISC=5N
+ ISE=33.204P NE=1.5 BR=4 NR=1 VAR=28 IKR=2.7 RE=59.1M RB=15
+ RBM=1.5 IRB=333.33U RC=123.6M XTB=1.5 CJE=266.65P CJC=144.28P 
+ VJC=300M VJE=750M MJC=250M MJE=400M TF=39.7N TR=1.275U 
+ ITF=3.0 XTF=1.0 PTF=120)
*   55 Volt  4 Amp  4 MHz  SiNPN  Transistor  02-20-1991
**********
*SRC=2N3055;QN3055;BJTs NPN;Power;60V 15A
.MODEL QN3055 NPN(IS=4.6603P NF=1.0 BF=360 VAF=100 IKF=.25
+ ISE=33.394P ISC=5N RB=3 IRB=1M RBM=.4 NE=1.5 RC=.04 BR=2 
+ MJC=.40 VJE=1.2 MJE=.45 XTB=1
+ CJE=580.19PF TF=80E-9 CJC=212.15PF TR=2.55U
+ PTF=120 XTF=1 ITF=3)
**********
*SRC=2N3766;QN3766;BJTs NPN;Power;60V 4A
.MODEL QN3766 NPN (IS=3.60E-09 NF=1.0 BF=159  VAF=139 
+ IKF=9.0E-01 ISE=4.67E-09 ISC=5N NE=2.0 BR=4  NR=1.0 VAR=24 
+ XTB=1.5 RE=1.2 RB=4.9 RBM=.49 IRB=3.33M RC=4.9E-01
+ CJE=3.3E-10 CJC=9.6E-11 TF=2.1E-09 TR=3.9E-07)
*  60 Volt  4.00 Amp  77 MHz  SiNPN  Transistor  06-29-1990
**********
*SRC=2N3767;QN3767;BJTs NPN;Power;80V 4A
.MODEL QN3767 NPN (IS=3.60E-09 NF=1.0 BF=144  VAF=161 
+ IKF=9.0E-01 ISE=5.14E-09 ISC=5N NE=1.5 BR=4  NR=1.0 VAR=24 
+ XTB=1.5 RE=1.2 RB=4.9 RBM=.49 IRB=3.33M RC=4.9E-01
+ VJE=.35 MJE=.323 CJE=3.3E-10 PTF=120 XTF=1 ITF=10.8
+ VJC=.5 MJC=.282 CJC=9.6E-11 TF=2.1E-09 TR=3.9E-07)
*  80 Volt  4.00 Amp  77 MHz  SiNPN  Transistor  06-29-1990
**********
*SRC=2N4233A;QN4233A;BJTs NPN;Power;80V 5A
.MODEL QN4233A NPN (IS=1.553P NF=1 BF=140 VAF=160 IKF=1.05
+ ISE=41.282P ISC=5N NE=1.5 BR=4 NR=1 VAR=20 IKR=2.62 RE=.396 
+ RB=12.0 RBM=1.2 IRB=416.67U PTF=120 XTF=1 ITF=12.0 
+ RC=.128 XTB=2.5 CJE=251.27P CJC=108.45P MJC=.21 MJE=.3 
+ VJC=.75 VJE=.5 TF=31.8N TR=1.275U)
*   80 Volt  5 Amp  5 MHz  SiNPN  Transistor  02-20-1991
**********
*SRC=2N5190;QN5190;BJTs NPN;Power;40V 4A
.MODEL QN5190 NPN (IS=4.65E-12 NF=1.0 BF=144 VAF=114 
+ IKF=300M ISE=7.62E-10 NE=2.0 BR=4 NR=1.0 VAR=20 
+ XTB=2.5 RE=1.7E-01 RB=12.0 RBM=1.2 IRB=416.67U RC=6.8E-02
+ CJE=3.1E-10 CJC=3.1E-10 TF=4.5E-08 TR=1.27U
+ PTF=120 XTF=1 ITF=3.6 ISC=5N
+ MJC=210M VJC=1.25 MJE=300M VJE=500M)
*  Motorola 40 Volt  4.00 Amp  3 MHz  SiNPN  Transistor  05-25-1990
**********
*SRC=2N5193;QN5193;BJTs PNP;Power;40V 4A
.MODEL QN5193 PNP (IS=4.06E-13 NF=1.0 BF=104 VAF=114 
+ IKF=300M ISE=2.25E-10 ISC=7N NE=2.0 BR=4 NR=1.0 VAR=20 
+ XTB=1.4 RE=1.5E-01 RB=15.0 RBM=1.5 IRB=333.33U RC=5.8E-02
+ CJE=3.1E-10 CJC=4.7E-10 TF=5.3E-08 TR=1.0625U
+ PTF=120 XTF=1 ITF=3.6
+ MJC=350M VJC=1.25 MJE=300M VJE=650M)
* Motorola 40 Volt  4.00 Amp  3 MHz  SiPNP  Transistor  05-25-1990
**********
*SRC=2N5303;QN5303;BJTs NPN;Power;100V 30A
.MODEL QN5303 NPN (IS=3.04P NF=1 BF=162 VAF=180 IKF=18
+ ISE=1.87N NE=2 BR=4 NR=1 VAR=600 IKR=27 RE=29.3M RB=.117
+ RC=11.7M XTB=1.5 CJE=3.04N CJC=1.80N TF=15.9N TR=425N)
*   100 Volt  30 Amp  10 MHz  SiNPN  Transistor  02-08-1991
**********
*SRC=2N5428;QN5428;BJTs NPN;Power;80V 7A
.MODEL QN5428 NPN (IS=2.1748P NF=1 BF=410 VAF=100 IKF=3.0
+ ISE=30.166P NE=1.5 BR=4 NR=1 VAR=600 IKR=27 RE=29.3M 
+ RB=8.5714 RBM=857.14M IRB=583.33U PTF=120 XTF=1 ITF=36.0
+ RC=85.714M XTB=2.0 CJE=957.29P CJC=349.11P VJC=.75
+ VJE=.65 MJC=.33 MJE=.31 TF=3.5556N TR=4.25U)
**********
*SRC=2N5884;QN5884;BJTs PNP;Power;
.MODEL QN5884 PNP (IS=15.534P NF=1 BF=540 VAF=50 IKF=600M
+ ISE=30.177P NE=1.5 BR=4 NR=1 VAR=600 IKR=27 RE=29.3M 
+ RB=2.44 RBM=240.0M IRB=2.0833M PTF=120 XTF=1 ITF=7.2
+ RC=24.0M XTB=1.23 CJE=1.6062N CJC=2.4231N VJC=.5
+ VJE=.4 MJC=.364 MJE=.389 TF=11.393N TR=2.55U)
**********
*SRC=2N5886;QN5886;BJTs NPN;Power;
.MODEL QN5886 NPN( TR=1.785U TF=26.708N CJC=1.1299N CJE=1.6243N
+ IS=7.7671P ISE=140.03P XTB=3.2 IKF=2 ISC=10N
+ PTF=120 XTF=1 ITF=18 RB=2.4 RBM=240M IRB=2.0833M
+ NE=1.5 NF=1 MJC=260M MJE=266M BR=2 BF=300  
+ VJC=170M VJE=150M VAF=100 RC=24M)
**********
*SRC=MJ14002;MJ14002;BJTs NPN;Power;80V 60A
*SYM=POWBJTN
.SUBCKT MJ14002  1 2 3
*    TERMINALS:  C B E
* Motorola 80 Volt  60 Amp  SiNPN  Power Transistor  08-02-1993
Q1 1 2 3  QPWR .67
Q2 1 4 3  QPWR .33
RBS  2 4  23
.MODEL QPWR NPN (IS=4.42P NF=1 BF=195 VAF=161 IKF=15 ISE=1.71N NE=2
+ BR=4 NR=1 VAR=20 IKR=22.5 RE=13M RB=52.1M RC=5.21M XTB=1.5
+ CJE=4.02N VJE=.6 MJE=.3 CJC=3.01N VJC=.22 MJC=.2 TF=83.8N TR=2.04U)
.ENDS 
**********
*SRC=MJ14000;MJ14000;BJTs NPN;Power;60V 60A
*SYM=POWBJTN
.SUBCKT MJ14000  1 2 3
*    TERMINALS:  C B E
* Motorola 60 Volt  60 Amp  SiNPN  Power Transistor  08-02-1993
Q1 1 2 3  QPWR .67
Q2 1 4 3  QPWR .33
RBS  2 4  30.5
.MODEL QPWR NPN (IS=4.42P NF=1 BF=195 VAF=139 IKF=15 ISE=1.71N NE=2
+ BR=4 NR=1 VAR=20 IKR=22.5 RE=13M RB=52.1M RC=5.21M XTB=1.5
+ CJE=4.02N VJE=.6 MJE=.3 CJC=3.01N VJC=.22 MJC=.2 TF=83.8N TR=2.04U)
.ENDS 
**********
*SRC=MJ14001;MJ14001;BJTs PNP;Power;60V 60A
*SYM=POWBJTP
.SUBCKT MJ14001  1 2 3
*    TERMINALS:  C B E
* Motorola 60 Volt  60 Amp  SiPNP  Power Transistor  08-02-1993
Q1 1 2 3  QPWR .67
Q2 1 4 3  QPWR .33
RBS  2 4  30.5
.MODEL QPWR PNP (IS=2.36P NF=1 BF=195 VAF=139 IKF=15 ISE=1.25N NE=2
+ BR=4 NR=1 VAR=20 IKR=22.5 RE=13M RB=52.1M RC=5.21M XTB=1.5
+ CJE=2.81N VJE=.6 MJE=.3 CJC=1.5N VJC=.22 MJC=.2 TF=83.8N TR=2.04U)
.ENDS 
**********
*SRC=MJ14003;MJ14003;BJTs PNP;Power;80V 60A
*SYM=POWBJTP
.SUBCKT MJ14003  1 2 3
*    TERMINALS:  C B E
* Motorola 80 Volt  60 Amp  SiPNP  Power Transistor  08-02-1993
Q1 1 2 3  QPWR .67
Q2 1 4 3  QPWR .33
RBS  2 4  23
.MODEL QPWR PNP (IS=2.36P NF=1 BF=195 VAF=161 IKF=15 ISE=1.25N NE=2
+ BR=4 NR=1 VAR=20 IKR=22.5 RE=13M RB=52.1M RC=5.21M XTB=1.5
+ CJE=2.81N VJE=.6 MJE=.3 CJC=1.5N VJC=.22 MJC=.2 TF=83.8N TR=2.04U)
.ENDS 
**********
*SRC=MJ15004;MJ15004;BJTs PNP;Power;140V 20A
*SYM=POWBJTP
.SUBCKT MJ15004  1 2 3
*    TERMINALS:  C B E
* Motorola 140 Volt  20 Amp  SiPNP  Power Transistor  08-02-1993
Q1 1 2 3  QPWR .67
Q2 1 4 3  QPWR .33
RBS  2 4  13.3
.MODEL QPWR PNP (IS=21.5P NF=1 BF=130 VAF=213 IKF=3 ISE=2.54N NE=2
+ BR=4 NR=1 VAR=20 IKR=4.5 RE=32.1M RB=.128 RC=12.8M XTB=1.5
+ CJE=1.47N VJE=.6 MJE=.3 CJC=659P VJC=.22 MJC=.2 TF=19.8N TR=765N)
.ENDS 
**********
*SRC=MJ15003;MJ15003;BJTs NPN;Power;140V 20A
*SYM=POWBJTP
.SUBCKT MJ15003  1 2 3
*    TERMINALS:  C B E
* Motorola 140 Volt  20 Amp  SiNPN  Power Transistor  08-02-1993
Q1 1 2 3  QPWR .67
Q2 1 4 3  QPWR .33
RBS  2 4  13.3
.MODEL QPWR NPN (IS=21.5P NF=1 BF=130 VAF=213 IKF=4.5 ISE=3.11N NE=2
+ BR=4 NR=1 VAR=20 IKR=6.75 RE=32.1M RB=.128 RC=12.8M XTB=1.5
+ CJE=1.2N VJE=.6 MJE=.3 CJC=659P VJC=.22 MJC=.2 TF=46.7N TR=1.8U)
.ENDS 
**********
*SRC=MJE15030;MJE15030;BJTs NPN;Power;150V 8A
*SYM=POWBJTN
.SUBCKT MJE15030 1 2 3
*    TERMINALS:  C B E
*  150 Volt  8 Amp  SiNPN  Power Transistor  06-15-1993
Q1 1 2 3  QPWR .67
Q2 1 4 3  QPWR .33
RBS  2 4  12.5
.MODEL QPWR NPN (IS=7.31P NF=1 BF=300 VAF=220 IKF=3 ISE=1.8N NE=2
+ BR=4 NR=1 VAR=20 IKR=4.5 RE=40.2M RB=.16 RC=16M XTB=1.5
+ CJE=13.4P VJE=.6 MJE=.3 CJC=118P VJC=.22 MJC=.2 TF=2.27N TR=87.4N)
.ENDS 
**********
*SRC=MJE15028;MJE15028;BJTs NPN;Power;120V 8A
*SYM=POWBJTN
.SUBCKT MJE15028 1 2 3
*    TERMINALS:  C B E
*  120 Volt  8 Amp  SiNPN  Power Transistor  06-15-1993
Q1 1 2 3  QPWR .67
Q2 1 4 3  QPWR .33
RBS  2 4  15.5
.MODEL QPWR NPN (IS=7.31P NF=1 BF=300 VAF=197 IKF=3 ISE=1.8N NE=2
+ BR=4 NR=1 VAR=20 IKR=4.5 RE=40.2M RB=.16 RC=16M XTB=1.5
+ CJE=13.4P VJE=.6 MJE=.3 CJC=118P VJC=.22 MJC=.2 TF=2.27N TR=87.4N)
.ENDS 
**********
*SRC=MJE15029;MJE15029;BJTs PNP;Power;120V 8A
*SYM=POWBJTP
.SUBCKT MJE15029 1 2 3
*    TERMINALS:  C B E
*  120 Volt  8 Amp  SiPNP  Power Transistor  06-15-1993
Q1 1 2 3  QPWR .67
Q2 1 4 3  QPWR .33
RBS  2 4  15.5
.MODEL QPWR PNP (IS=1.37P NF=1 BF=262 VAF=197 IKF=4 ISE=782P NE=2
+ BR=4 NR=1 VAR=20 IKR=6 RE=56.3M RB=.225 RC=22.5M XTB=1.5
+ CJE=947P VJE=.6 MJE=.3 CJC=207P VJC=.22 MJC=.2 TF=1.87N TR=72N)
.ENDS 
**********
*SRC=MJE15031;MJE15031;BJTs PNP;Power;150V 8A
*SYM=POWBJTP
.SUBCKT MJE15031 1 2 3
*    TERMINALS:  C B E
*  150 Volt  8 Amp  SiPNP  Power Transistor  06-15-1993
Q1 1 2 3  QPWR .67
Q2 1 4 3  QPWR .33
RBS  2 4  12.5
.MODEL QPWR PNP (IS=1.37P NF=1 BF=262 VAF=220 IKF=4 ISE=782P NE=2
+ BR=4 NR=1 VAR=20 IKR=6 RE=56.3M RB=.225 RC=22.5M XTB=1.5
+ CJE=947P VJE=.6 MJE=.3 CJC=207P VJC=.22 MJC=.2 TF=1.87N TR=72N)
.ENDS 
**********
*SRC=MPSU06;MPSU06;BJTs NPN;Amplifier;80V 2A
.MODEL MPSU06 NPN (IS=203F NF=1 BF=182 VAF=161 IKF=.5 ISE=72P NE=2
+ BR=4 NR=1 VAR=16 IKR=.75 RE=25.7M RB=.103 RC=10.3M XTB=1.5
+ CJE=44P VJE=1.1 MJE=.5 CJC=14.2P VJC=.3 MJC=.3 TF=1.06N TR=737N)
*  80 Volt  2 Amp  150 MHz  SiNPN  Transistor  08-16-1995
*  MPSU06, MOTOROLA BIPOLAR POWER TRANSISTOR DATA BOOK,
* Q1/89, P.3-1048
**********
*SRC=MPSU07;MPSU07;BJTs NPN;Amplifier;100V 2A
.MODEL MPSU07 NPN (IS=203F NF=1 BF=175 VAF=180 IKF=.25 ISE=52.8P NE=2
+ BR=4 NR=1 VAR=16 IKR=.375 RE=25.7M RB=.103 RC=10.3M XTB=1.5
+ CJE=96.7P VJE=1.1 MJE=.5 CJC=34.3P VJC=.3 MJC=.3 TF=548P TR=381N)
*  100 Volt  2 Amp  290 MHz  SiNPN  Transistor  08-16-1995
*  MPSU07, MOTOROLA BIPOLAR POWER TRANSISTOR DATA BOOK,
* Q1/89, P.3-1050
**********
*SRC=MPSU57;MPSU57;BJTs PNP;Amplifier;100V 2A
.MODEL MPSU57 PNP (IS=5.95F NF=1 BF=188 VAF=180 IKF=.225 ISE=7.98P NE=2
+ BR=4 NR=1 VAR=16 IKR=.337 RE=25.7M RB=.103 RC=10.3M XTB=1.5
+ CJE=96.7P VJE=1.1 MJE=.5 CJC=34.3P VJC=.3 MJC=.3 TF=795P TR=552N)
*  100 Volt  2 Amp  200 MHz  SiPNP  Transistor  08-16-1995
*  MPSU57, MOTOROLA BIPOLAR POWER TRANSISTOR DATA BOOK,
* Q1/89, P.3-1064
**********
*SRC=2N4030;QN4030;BJTs PNP;Power;
.MODEL QN4030 PNP (IS=101F NF=1 BF=92 VAF=139 IKF=.2 ISE=39.8P NE=2
+ BR=4 NR=1 VAR=20 IKR=.3 RE=.113 RB=.452 RC=45.2M XTB=1.5
+ CJE=716P VJE=1.1 MJE=.5 CJC=57.8P VJC=.3 MJC=.3 TF=1.38N TR=595N)
* Motorola 60 Volt  4 Amp  115 MHz  SiPNP  Transistor  07-27-1993
**********
*SRC=2N4899;QN4899;BJTs PNP;Power;60V 4A
.MODEL QN4899 PNP (IS=893F NF=1 BF=330 VAF=139 IKF=.25 ISE=199P NE=2
+ BR=4 NR=1 VAR=20 IKR=.375 RE=.113 RB=.452 RC=45.2M XTB=1.5
+ CJE=716P VJE=1.1 MJE=.5 CJC=231P VJC=.3 MJC=.3 TF=26.5N TR=2.04U)
* Motorola 60 Volt  4 Amp  6 MHz  SiPNP  Transistor  07-27-1993
**********
*SRC=2N4919;QN4919;BJTs PNP;Power;60V 1A
.MODEL QN4919 PNP (IS=144F NF=1 BF=300 VAF=139 IKF=.3 ISE=80.1P NE=2
+ BR=4 NR=1 VAR=20 IKR=.45 RE=.163 RB=.652 RC=65.2M XTB=1.5
+ CJE=716P VJE=1.1 MJE=.5 CJC=231P VJC=.3 MJC=.3 TF=26.5N TR=2.04U)
* Motorola 60 Volt  4 Amp  6 MHz  SiPNP  Transistor  07-27-1993
**********
*SRC=2N4911;QN4911;BJTs NPN;Power;60V 4A
.MODEL QN4911 NPN (IS=101F NF=1 BF=176 VAF=139 IKF=.5 ISE=91.6P NE=2
+ BR=4 NR=1 VAR=20 IKR=.75 RE=.133 RB=.532 RC=53.2M XTB=1.5
+ CJE=716P VJE=1.1 MJE=.5 CJC=231P VJC=.3 MJC=.3 TF=26.5N TR=2.04U)
* Motorola 60 Volt  4 Amp  6 MHz  SiNPN  Transistor  07-27-1993
**********
*SRC=2N4922;QN4922;BJTs NPN;Power;60V 1A
.MODEL QN4922 NPN (IS=101F NF=1 BF=176 VAF=139 IKF=.5 ISE=91.6P NE=2
+ BR=4 NR=1 VAR=20 IKR=.75 RE=.133 RB=.532 RC=53.2M XTB=1.5
+ CJE=716P VJE=1.1 MJE=.5 CJC=231P VJC=.3 MJC=.3 TF=26.5N TR=2.04U)
* Motorola 60 Volt  4 Amp  6 MHz  SiNPN  Transistor  07-27-1993
**********
*SRC=BD140;BD140;BJTs PNP;Power;80V 1.5A
*SYM=POWBJTP
.SUBCKT BD140    1 2 3
*    TERMINALS:  C B E
*  80 Volt  1.5 Amp  SiPNP  Power Transistor  11-11-1992
Q1 1 2 3  QPWR .67
Q2 1 4 3  QPWR .33
RBS  2 4  23
.MODEL QPWR PNP (IS=110F NF=1 BF=130 VAF=161 IKF=.5 ISE=74.3P NE=2
+ BR=4 NR=1 VAR=20 IKR=.75 RE=.154 RB=.617 RC=61.7M XTB=1.5
+ CJE=111P VJE=.6 MJE=.3 CJC=72.5P VJC=.22 MJC=.2 TF=13.2N TR=510N)
.ENDS 
**********
*SRC=BD136;BD136;BJTs PNP;Power;45V 1.5A
*SYM=POWBJTP
.SUBCKT BD136    1 2 3
*    TERMINALS:  C B E
*  45 Volt  1.5 Amp  SiPNP  Power Transistor  11-11-1992
Q1 1 2 3  QPWR .67
Q2 1 4 3  QPWR .33
RBS  2 4  40.5
.MODEL QPWR PNP (IS=110F NF=1 BF=130 VAF=120 IKF=.5 ISE=74.3P NE=2
+ BR=4 NR=1 VAR=20 IKR=.75 RE=.154 RB=.617 RC=61.7M XTB=1.5
+ CJE=111P VJE=.6 MJE=.3 CJC=72.5P VJC=.22 MJC=.2 TF=13.2N TR=510N)
.ENDS 
**********
*SRC=BD138;BD138;BJTs PNP;Power;60V 1.5A
*SYM=POWBJTP
.SUBCKT BD138    1 2 3
*    TERMINALS:  C B E
*  60 Volt  1.5 Amp  SiPNP  Power Transistor  11-11-1992
Q1 1 2 3  QPWR .67
Q2 1 4 3  QPWR .33
RBS  2 4  30.5
.MODEL QPWR PNP (IS=110F NF=1 BF=130 VAF=139 IKF=.5 ISE=74.3P NE=2
+ BR=4 NR=1 VAR=20 IKR=.75 RE=.154 RB=.617 RC=61.7M XTB=1.5
+ CJE=111P VJE=.6 MJE=.3 CJC=72.5P VJC=.22 MJC=.2 TF=13.2N TR=510N)
.ENDS 
**********
*SRC=BD135;BD135;BJTs NPN;Power;45V 1.5A
*SYM=POWBJTN
.SUBCKT BD135    1 2 3
*    TERMINALS:  C B E
*  45 Volt  1.5 Amp  SiNPN  Power Transistor  11-11-1992
Q1 1 2 3  QPWR .67
Q2 1 4 3  QPWR .33
RBS  2 4  40.5
.MODEL QPWR NPN (IS=110F NF=1 BF=143 VAF=120 IKF=.5 ISE=67.6P NE=2
+ BR=4 NR=1 VAR=20 IKR=.75 RE=.154 RB=.617 RC=61.7M XTB=1.5
+ CJE=50.7P VJE=.6 MJE=.3 CJC=32.9P VJC=.22 MJC=.2 TF=13.2N TR=510N)
.ENDS 
**********
*SRC=BD137;BD137;BJTs NPN;Power;60V 1.5A
*SYM=POWBJTN
.SUBCKT BD137    1 2 3
*    TERMINALS:  C B E
*  60 Volt  1.5 Amp  SiNPN  Power Transistor  11-11-1992
Q1 1 2 3  QPWR .67
Q2 1 4 3  QPWR .33
RBS  2 4  30.5
.MODEL QPWR NPN (IS=110F NF=1 BF=156 VAF=139 IKF=.5 ISE=61.9P NE=2
+ BR=4 NR=1 VAR=20 IKR=.75 RE=.154 RB=.617 RC=61.7M XTB=1.5
+ CJE=50.7P VJE=.6 MJE=.3 CJC=32.9P VJC=.22 MJC=.2 TF=13.2N TR=510N)
.ENDS 
**********
*SRC=BD139;BD139;BJTs NPN;Power;80V 1.5A
*SYM=POWBJTN
.SUBCKT BD139    1 2 3
*    TERMINALS:  C B E
*  80 Volt  1.5 Amp  SiNPN  Power Transistor  11-11-1992
Q1 1 2 3  QPWR .67
Q2 1 4 3  QPWR .33
RBS  2 4  23
.MODEL QPWR NPN (IS=110F NF=1 BF=136 VAF=161 IKF=.5 ISE=70.8P NE=2
+ BR=4 NR=1 VAR=20 IKR=.75 RE=.154 RB=.617 RC=61.7M XTB=1.5
+ CJE=50.7P VJE=.6 MJE=.3 CJC=32.9P VJC=.22 MJC=.2 TF=13.2N TR=510N)
.ENDS 
**********
*SRC=TIP35;TIP35;BJTs NPN;Power;80V 25A
*SYM=POWBJTN
.SUBCKT TIP35    1 2 3
*    TERMINALS:  C B E
*  80 Volt  25 Amp  SiNPN  Power Transistor  11-11-1992
Q1 1 2 3  QPWR .67
Q2 1 4 3  QPWR .33
RBS  2 4  23
.MODEL QPWR NPN (IS=1.84P NF=1 BF=81.5 VAF=161 IKF=8.33 ISE=1.97N NE=2
+ BR=4 NR=1 VAR=20 IKR=12.5 RE=13.2M RB=53M RC=5.3M XTB=1.5
+ CJE=801P VJE=.6 MJE=.3 CJC=520P VJC=.22 MJC=.2 TF=54.1N TR=2.08U)
.ENDS 
**********
*SRC=TIP36;TIP36;BJTs PNP;Power;80V 25A
*SYM=POWBJTP
.SUBCKT TIP36    1 2 3
*    TERMINALS:  C B E
*  80 Volt  25 Amp  SiPNP  Power Transistor  11-11-1992
Q1 1 2 3  QPWR .67
Q2 1 4 3  QPWR .33
RBS  2 4  23
.MODEL QPWR PNP (IS=1.84P NF=1 BF=65 VAF=161 IKF=8.33 ISE=2.47N NE=2
+ BR=4 NR=1 VAR=20 IKR=12.5 RE=13.2M RB=53M RC=5.3M XTB=1.5
+ CJE=1.81N VJE=.6 MJE=.3 CJC=1.17N VJC=.22 MJC=.2 TF=54.1N TR=2.08U)
.ENDS 
**********
*SRC=TIP32;TIP32;BJTs PNP;Power;40V 3A
*SYM=POWBJTP
.SUBCKT TIP32    1 2 3
*    TERMINALS:  C B E
Q1 1 2 3  QPWR .67
Q2 1 4 3  QPWR .33
RBS  2 4  45.5
.MODEL QPWR PNP (IS=3.69P NF=1 BF=156 VAF=113 IKF=.8 IRB=27.78U
+ ISE=453P NE=2 BR=4 NR=1 VAR=20 IKR=1.2 RE=77.1M RB=20 RBM=1.8
+ RC=30.8M XTB=1.5 CJE=336.32P VJE=.4526 MJE=.4897 CJC=233.3P
+ VJE=.4271 MJC=.4237 TF=43N TR=1.18U PTF=120 ITF=9.6)
.ENDS
*   Motorola 40 Volt  3 Amp  SiPNP  Power Transistor  11-26-1991
**********
*SRC=TIP32A;TIP32A;BJTs PNP;Power;60V 3A
*SYM=POWBJTP
.SUBCKT TIP32A   1 2 3
*    TERMINALS:  C B E
Q1 1 2 3  QPWR .67
Q2 1 4 3  QPWR .33
RBS  2 4  33.5
.MODEL QPWR PNP (IS=3.69P NF=1 BF=156 VAF=139 IKF=.8 IRB=27.78U
+ ISE=453P NE=2 BR=4 NR=1 VAR=20 IKR=1.2 RE=77.1M RB=20 RBM=1.8
+ RC=30.8M XTB=1.5 CJE=386.32P VJE=.4526 MJE=.4897 CJC=263.3P
+ VJE=.4271 MJC=.4237 TF=43N TR=1.22U PTF=120 ITF=9.6)
.ENDS
*   Motorola 60 Volt  3 Amp  SiPNP  Power Transistor  11-26-1991
**********
*SRC=TIP32B;TIP32B;BJTs PNP;Power;80V 3A
*SYM=POWBJTP
.SUBCKT TIP32B   1 2 3
*    TERMINALS:  C B E
Q1 1 2 3  QPWR .67
Q2 1 4 3  QPWR .33
RBS  2 4  23
.MODEL QPWR PNP (IS=3.69P NF=1 BF=156 VAF=160 IKF=.8 IRB=27.78U
+ ISE=453P NE=2 BR=4 NR=1 VAR=20 IKR=1.2 RE=77.1M RB=20 RBM=1.9
+ RC=30.8M XTB=1.5 CJE=366.32P VJE=.4526 MJE=.4897 CJC=233.3P
+ VJE=.4271 MJC=.4237 TF=43N TR=1.18U PTF=120 ITF=9.6)
.ENDS
*   Motorola 80 Volt  3 Amp  SiPNP  Power Transistor  11-26-1991
**********
*SRC=TIP32C;TIP32C;BJTs PNP;Power;100V 3A
*SYM=POWBJTP
.SUBCKT TIP32C   1 2 3
*    TERMINALS:  C B E
Q1 1 2 3  QPWR .67
Q2 1 4 3  QPWR .33
RBS  2 4  18.5
.MODEL QPWR PNP (IS=3.69P NF=1 BF=156 VAF=180 IKF=.8 IRB=27.78U
+ ISE=453P NE=2 BR=4 NR=1 VAR=20 IKR=1.2 RE=77.1M RB=20 RBM=1.9
+ RC=30.8M XTB=1.5 CJE=366.32P VJE=.4526 MJE=.4897 CJC=233.3P
+ VJE=.4271 MJC=.4237 TF=43N TR=1.18U PTF=120 ITF=9.6)
.ENDS
*   Motorola 100 Volt  3 Amp  SiPNP  Power Transistor  11-26-1991
**********
*SRC=2SC2238B;QSC2238B;BJTs NPN;Power;
*SYM=POWBJTN
.SUBCKT QSC2238B 1 2 3
*    TERMINALS:  C B E
*  200 Volt  1.5 Amp  SiNPN  Power Transistor  12-03-1991
Q1 1 2 3  QPWR .67
Q2 1 4 3  QPWR .33
RBS  2 4  9.5
.MODEL QPWR NPN (IS=4.26P NF=1 BF=240 VAF=254 IKF=.9 ISE=467P NE=2.1
+ BR=4 NR=1 VAR=20 IKR=1.2 RE=46.15M RB=40 RBM=4 IRB=55.556U RC=966M
+ CJE=50.7P VJE=.6 MJE=.3 CJC=32.9P VJC=.22 MJC=.2 TF=1.6N TR=61.2N
+ XTB=1.5 PTF=120 XTF=1 ITF=9.6)
.ENDS 
**********
*SRC=2SA968B;QSA968B;BJTs PNP;Power;
*SYM=POWBJTP
.SUBCKT QSA968B  1 2 3
*    TERMINALS:  C B E
*  200 Volt  1.5 Amp  SiPNP  Power Transistor  12-03-1991
Q1 1 2 3  QPWR .67
Q2 1 4 3  QPWR .33
RBS  2 4  9.5
.MODEL QPWR PNP (IS=4.31P NF=1 BF=162 VAF=254 IKF=.8 ISE=469P NE=2
+ BR=4 NR=1 VAR=20 IKR=1.2 RE=46.15M RB=40 RBM=4 IRB=55.556U RC=966M
+ CJE=111P VJE=.6 MJE=.3 CJC=72.5P VJC=.22 MJC=.2 TF=1.6N TR=61.2N)
+ XTB=1.5 PTF=120 XTF=1 ITF=9.6)
.ENDS 
**********
*SRC=2SC3298B;QSC3298B;BJTs NPN;Power;200V 1.5A
*SYM=POWBJTN
.SUBCKT QSC3298B 1 2 3
*    TERMINALS:  C B E
*  200 Volt  1.5 Amp  SiNPN  Power Transistor  12-03-1991
Q1 1 2 3  QPWR .67
Q2 1 4 3  QPWR .33
RBS  2 4  9.5
.MODEL QPWR NPN (IS=4.4P NF=1 BF=240 VAF=254 IKF=.9 ISE=475P NE=2
+ BR=4 NR=1 VAR=20 IKR=1.2 RE=5.6 RB=40 RBM=4 IRB=55.556U RC=1
+ CJE=50.7P VJE=.6 MJE=.3 CJC=32.9P VJC=.22 MJC=.2 TF=1.6N TR=61.2N)
+ XTB=1.5 PTF=120 XTF=1 ITF=9.6)
.ENDS 
**********
*SRC=2SA1306B;QSA1306B;BJTs PNP;Power;200V 1.5A
*SYM=POWBJTP
.SUBCKT QSA1306B 1 2 3
*    TERMINALS:  C B E
*  200 Volt  1.5 Amp  SiPNP  Power Transistor  12-03-1991
Q1 1 2 3  QPWR .67
Q2 1 4 3  QPWR .33
RBS  2 4  9.5
.MODEL QPWR PNP (IS=4.4P NF=1 BF=162 VAF=254 IKF=.8 ISE=475P NE=2
+ BR=4 NR=1 VAR=20 IKR=1.2 RE=5.6 RB=40 RBM=4 IRB=55.556U RC=1
+ CJE=111P VJE=.6 MJE=.3 CJC=72.5P VJC=.22 MJC=.2 TF=1.6N TR=61.2N)
+ XTB=1.5 PTF=120 XTF=1 ITF=9.6)
.ENDS 
**********
*SRC=2SC3281;QSC3281;BJTs NPN;Power;200V 15A
*SYM=POWBJTN
.SUBCKT QSC3281  1 2 3
*    TERMINALS:  C B E
*  200 Volt  15 Amp  SiNPN  Power Transistor  12-03-1991
Q1 1 2 3  QPWR .67
Q2 1 4 3  QPWR .33
RBS  2 4  9.5
.MODEL QPWR NPN (IS=1.63P NF=1 BF=150 VAF=254 IKF=12 ISE=1.34N NE=2
+ BR=4 NR=1 VAR=20 IKR=16.5 RE=22.1M RB=4 RBM=.4 IRB=5.556U RC=4.84M
+ CJE=481P VJE=.6 MJE=.3 CJC=312P VJC=.22 MJC=.2 TF=5.33N TR=204N)
+ XTB=1.5 PTF=120 XTF=1 ITF=9.6)
.ENDS 
**********
*SRC=2SA1302;QSA1302;BJTs PNP;Power;200V 15A
*SYM=POWBJTP
.SUBCKT QSA1302  1 2 3
*    TERMINALS:  C B E
*  200 Volt  15 Amp  SiPNP  Power Transistor  12-03-1991
Q1 1 2 3  QPWR .67
Q2 1 4 3  QPWR .33
RBS  2 4  9.5
.MODEL QPWR PNP (IS=1.63P NF=1 BF=130 VAF=254 IKF=11 ISE=1.34N NE=2
+ BR=4 NR=1 VAR=20 IKR=16.5 RE=12.1M RB=4 RBM=.4 IRB=5.556U RC=4.84M
+ CJE=1.09N VJE=.6 MJE=.3 CJC=708P VJC=.22 MJC=.2 TF=5.33N TR=204N)
+ XTB=1.5 PTF=120 XTF=1 ITF=9.6)
.ENDS 
**********
*SRC=2N3447;QN3447;BJTs NPN;Power;60V 7.5A
*SYM=POWBJTN
.SUBCKT QN3447   1 2 3
*    TERMINALS:  C B E
*  60 Volt  7.5 Amp  SiNPN  Power Transistor  01-30-1993
Q1 1 2 3  QPWR .67
Q2 1 4 3  QPWR .33
RBS  2 4  30.5
.MODEL QPWR NPN (IS=552F NF=1 BF=126 VAF=139 IKF=2.5 ISE=383P NE=2
+ BR=4 NR=1 VAR=24 IKR=3.75 RE=48.2M RB=.192 RC=19.2M XTB=1.5
+ CJE=498P VJE=.6 MJE=.3 CJC=323P VJC=.22 MJC=.2 TF=29.6N TR=1.14U)
.ENDS 
**********
*SRC=2N3448;QN3448;BJTs NPN;Power;80V 7.5A
*SYM=POWBJTN
.SUBCKT QN3448   1 2 3
*    TERMINALS:  C B E
*  80 Volt  7.5 Amp  SiNPN  Power Transistor  01-30-1993
Q1 1 2 3  QPWR .67
Q2 1 4 3  QPWR .33
RBS  2 4  23
.MODEL QPWR NPN (IS=552F NF=1 BF=113 VAF=161 IKF=2.5 ISE=427P NE=2
+ BR=4 NR=1 VAR=24 IKR=3.75 RE=48.2M RB=.192 RC=19.2M XTB=1.5
+ CJE=498P VJE=.6 MJE=.3 CJC=323P VJC=.22 MJC=.2 TF=29.6N TR=1.14U)
.ENDS 
**********
*SRC=2N3583;QN3583;BJTs NPN;Power;175V 1A
*SYM=POWBJTN
.SUBCKT QN3583   1 2 3
*    TERMINALS:  C B E
*  175 Volt  1 Amp  SiNPN  Power Transistor  01-30-1993
Q1 1 2 3  QPWR .67
Q2 1 4 3  QPWR .33
RBS  2 4  10.7
.MODEL QPWR NPN (IS=73.7F NF=1 BF=182 VAF=238 IKF=.333 ISE=35.4P NE=2
+ BR=4 NR=1 VAR=24 IKR=.5 RE=.231 RB=.926 RC=92.6M XTB=1.5
+ CJE=671P VJE=.6 MJE=.3 CJC=100P VJC=.22 MJC=.2 TF=10.6N TR=3.4U)
.ENDS 
**********
*SRC=2N3584;QN3584;BJTs NPN;Power;250V 2A
*SYM=POWBJTN
.SUBCKT QN3584   1 2 3
*    TERMINALS:  C B E
*  250 Volt  2 Amp  SiNPN  Power Transistor  01-30-1993
Q1 1 2 3  QPWR .67
Q2 1 4 3  QPWR .33
RBS  2 4  7.7
.MODEL QPWR NPN (IS=147F NF=1 BF=128 VAF=284 IKF=.667 ISE=100P NE=2
+ BR=4 NR=1 VAR=24 IKR=1 RE=.115 RB=.463 RC=46.3M XTB=1.5
+ CJE=671P VJE=.6 MJE=.3 CJC=100P VJC=.22 MJC=.2 TF=10.6N TR=3.4U)
.ENDS 
**********
*SRC=2N3585;QN3585;BJTs NPN;Power;300V 2A
*SYM=POWBJTN
.SUBCKT QN3585   1 2 3
*    TERMINALS:  C B E
*  300 Volt  2 Amp  SiNPN  Power Transistor  01-30-1993
Q1 1 2 3  QPWR .67
Q2 1 4 3  QPWR .33
RBS  2 4  6.5
.MODEL QPWR NPN (IS=147F NF=1 BF=121 VAF=311 IKF=.667 ISE=106P NE=2
+ BR=4 NR=1 VAR=24 IKR=1 RE=.115 RB=.463 RC=46.3M XTB=1.5
+ CJE=671P VJE=.6 MJE=.3 CJC=100P VJC=.22 MJC=.2 TF=10.6N TR=3.4U)
.ENDS 
**********
*SRC=2N6420;QN6420;BJTs PNP;Power;170V 1A
*SYM=POWBJTP
.SUBCKT QN6420   1 2 3
*    TERMINALS:  C B E
*  250 Volt  1 Amp  SiPNP  Power Transistor  01-30-1993
Q1 1 2 3  QPWR .67