**********
* Copyright Intusoft 1988-1997
* All Rights Reserved
**********
**********
*SRC=IRF9530;IRF9530;MOSFETs P;Power <=100V;100V 7A
*SYM=POWMOSP
.SUBCKT IRF9530  10 20 30
*     TERMINALS:  D  G  S
M1   4  1  5  5  DMOS L=1U W=1U
RG  20  1  21.4
RD  10  4  .117
RDS  4  5  2.54MEG
CGD  7  4  787P
RCG  7  4  10MEG
MCG  7  9  1  1  SW
ECG  9  1  1  4  1
DGD  6  1  DCGD
MDG  6  8  4  4  SW
EDG  8  4  4  1  1
DDS  4  5  DSUB
LS   5 30  7.5N
.MODEL DMOS PMOS (LEVEL=3 VMAX=6.6MEG THETA=220M VTO=-3.2
+ KP=3.2 RS=8.25M IS=504F CGSO=400U)
.MODEL SW   PMOS (LEVEL=3 VTO=0 KP=20)
.MODEL DCGD D (CJO=787P M=.5 VJ=.41)
.MODEL DSUB D (IS=504F RS=.513 BV=100 IBV=.001
+ VJ=.8 M=.4 CJO=802P TT=432N)
.ENDS
*   IR 100 Volt  7 Amp  .25 ohm  P-Channel Power MOS-FET  07-26-1990
**********
*SRC=IRF9531;IRF9531;MOSFETs P;Power <=100V;60V 7A
*SYM=POWMOSP
.SUBCKT IRF9531  10 20 30
*     TERMINALS:  D  G  S
M1   4  1  5  5  DMOS L=1U W=1U
RG  20  1  21.4
RD  10  4  .117
RDS  4  5  2.54MEG
CGD  7  4  787P
RCG  7  4  10MEG
MCG  7  9  1  1  SW
ECG  9  1  1  4  1
DGD  6  1  DCGD
MDG  6  8  4  4  SW
EDG  8  4  4  1  1
DDS  4  5  DSUB
LS   5 30  7.5N
.MODEL DMOS PMOS (LEVEL=3 VMAX=6.6MEG THETA=220M VTO=-3.2
+ KP=3.2 RS=8.25M IS=840F CGSO=400U)
.MODEL SW   PMOS (LEVEL=3 VTO=0 KP=20)
.MODEL DCGD D (CJO=787P M=.5 VJ=.41)
.MODEL DSUB D (IS=840F RS=.515 BV=60 IBV=.001
+ VJ=.8 M=.4 CJO=802P TT=432N)
.ENDS
*   IR 60 Volt  7 Amp  .25 ohm  P-Channel Power MOS-FET  07-26-1990
**********
*SRC=IRF9532;IRF9532;MOSFETs P;Power <=100V;100V 6A
*SYM=POWMOSP
.SUBCKT IRF9532  10 20 30
*     TERMINALS:  D  G  S
M1   4  1  5  5  DMOS L=1U W=1U
RG  20  1  25
RD  10  4  .141
RDS  4  5  2.96MEG
CGD  7  4  787P
RCG  7  4  10MEG
MCG  7  9  1  1  SW
ECG  9  1  1  4  1
DGD  6  1  DCGD
MDG  6  8  4  4  SW
EDG  8  4  4  1  1
DDS  4  5  DSUB
LS   5 30  7.5N
.MODEL DMOS PMOS (LEVEL=3 VMAX=6.6MEG THETA=220M VTO=-3.2
+ KP=3.2 RS=9.5M IS=432F CGSO=400U)
.MODEL SW   PMOS (LEVEL=3 VTO=0 KP=20)
.MODEL DCGD D (CJO=787P M=.5 VJ=.41)
.MODEL DSUB D (IS=432F RS=.594 BV=100 IBV=.001
+ VJ=.8 M=.4 CJO=802P TT=432N)
.ENDS
*   IR 100 Volt  6 Amp  .3 ohm  P-Channel Power MOS-FET  07-26-1990
**********
*SRC=IRF9533;IRF9533;MOSFETs P;Power <=100V;60V 6A
*SYM=POWMOSP
.SUBCKT IRF9533  10 20 30
*     TERMINALS:  D  G  S
M1   4  1  5  5  DMOS L=1U W=1U
RG  20  1  25
RD  10  4  .141
RDS  4  5  2.96MEG
CGD  7  4  787P
RCG  7  4  10MEG
MCG  7  9  1  1  SW
ECG  9  1  1  4  1
DGD  6  1  DCGD
MDG  6  8  4  4  SW
EDG  8  4  4  1  1
DDS  4  5  DSUB
LS   5 30  7.5N
.MODEL DMOS PMOS (LEVEL=3 VMAX=6.6MEG THETA=220M VTO=-3.2
+ KP=3.2 RS=9.5M IS=720F CGSO=400U)
.MODEL SW   PMOS (LEVEL=3 VTO=0 KP=20)
.MODEL DCGD D (CJO=787P M=.5 VJ=.41)
.MODEL DSUB D (IS=720F RS=.596 BV=60 IBV=.001
+ VJ=.8 M=.4 CJO=802P TT=432N)
.ENDS
*   IR 60 Volt  6 Amp  .3 ohm  P-Channel Power MOS-FET  07-26-1990
**********
*SRC=IRFP9240;IRFP9240;MOSFETs P;Power >100V;200V 12A 0.5ohm
*SYM=POWMOSP
.SUBCKT IRFP9240 10 20 40
*     TERMINALS:  D  G  S
*  200 Volt  12 Amp  .5 ohm  P-Channel Power MOSFET  11-22-1995
M1   1  2  3  3  DMOS L=1U W=1U
RD  10  1  .236
RS  30  3  13.5M
RG  20  2  12.5
CGS  2  3  1.11N
EGD 12  0  1  2  1
VFB 14  0  0
FFB  1  2  VFB  1
CGD 13 14  1.04N
R1  13  0  1
D1  12 13  DLIM
DDG 15 14  DCGD
R2  12 15  1
D2  15  0  DLIM
DSD 10  3  DSUB
LS  30 40  13N
.MODEL DMOS PMOS (LEVEL=3 THETA=60M VMAX=416K ETA=2M VTO=-3 KP=2.36)
.MODEL DCGD D (CJO=1.04N VJ=.6 M=.68)
.MODEL DSUB D (IS=49.8N N=1.5 RS=.237 BV=200 CJO=1.24N VJ=.8 M=.42 TT=250N)
.MODEL DLIM D (IS=100U)
.ENDS
**********
*SRC=IRFZ20;IRFZ20;MOSFETs N;Power <=100V;50V 15A
*SYM=POWMOSN
.SUBCKT IRFZ20   10 20 30
*     TERMINALS:  D  G  S
M1   4  1  5  5  DMOS L=1U W=1U
RG  20  1  10
RD  10  4  37M
RDS  4  5  1.18MEG
CGD  7  4  590P
RCG  7  4  10MEG
MCG  7  9  1  1  SW
ECG  9  1  1  4  1
DGD  1  6  DCGD
MDG  6  8  4  4  SW
EDG  8  4  4  1  1
DDS  5  4  DSUB
LS   5 30  7.5N
.MODEL DMOS NMOS (LEVEL=3 VMAX=1.6MEG THETA=300M VTO=3.2
+ KP=5.0 RS=5M IS=2.16P CGSO=725U)
.MODEL SW   NMOS (LEVEL=3 VTO=0 KP=20)
.MODEL DCGD D (CJO=590P M=.5 VJ=.41)
.MODEL DSUB D (IS=2.16P RS=0 BV=50 IBV=.001
+ VJ=.8 M=.4 CJO=902P TT=144N)
.ENDS
*   Motorola 50 Volt  15 Amp  80M ohm  N-Channel Power MOS-FET  07-26-1990
**********
*SRC=IRFZ22;IRFZ22;MOSFETs N;Power <=100V;50V 14A
*SYM=POWMOSN
.SUBCKT IRFZ22   10 20 30
*     TERMINALS:  D  G  S
M1   4  1  5  5  DMOS L=1U W=1U
RG  20  1  10
RD  10  4  46.5M
RDS  4  5  1.18MEG
CGD  7  4  590P
RCG  7  4  10MEG
MCG  7  9  1  1  SW
ECG  9  1  1  4  1
DGD  1  6  DCGD
MDG  6  8  4  4  SW
EDG  8  4  4  1  1
DDS  5  4  DSUB
LS   5 30  7.5N
.MODEL DMOS NMOS (LEVEL=3 VMAX=1.6MEG THETA=300M VTO=3.2
+ KP=5 RS=5.5M IS=2.16P CGSO=725U)
.MODEL SW   NMOS (LEVEL=3 VTO=0 KP=20)
.MODEL DCGD D (CJO=590P M=.5 VJ=.41)
.MODEL DSUB D (IS=2.16P RS=0 BV=50 IBV=.001
+ VJ=.8 M=.4 CJO=902P TT=144N)
.ENDS
*   Motorola 50 Volt  15 Amp  .1 ohm  N-Channel Power MOS-FET  07-26-1990
**********
*SRC=MTP15N05;MTP15N05;MOSFETs N;Power <=100V;50V 15A
*SYM=POWMOSN
.SUBCKT MTP15N05 10 20 30
*     TERMINALS:  D  G  S
M1   4  1  5  5  DMOS L=1U W=1U
RG  20  1  10
RD  10  4  56M
RDS  4  5  1.18MEG
CGD  7  4  1.18N
RCG  7  4  10MEG
MCG  7  9  1  1  SW
ECG  9  1  1  4  1
DGD  1  6  DCGD
MDG  6  8  4  4  SW
EDG  8  4  4  1  1
DDS  5  4  DSUB
LS   5 30  7.5N
.MODEL DMOS NMOS (LEVEL=3 VMAX=4.6MEG THETA=235.6M VTO=3.4
+ KP=3.8 RS=7.5M IS=2.16P CGSO=500U)
.MODEL SW   NMOS (LEVEL=3 VTO=0 KP=20)
.MODEL DCGD D (CJO=1.18N M=.5 VJ=.41)
.MODEL DSUB D (IS=2.16P RS=12.9M BV=50 IBV=.001
+ VJ=.8 M=.4 CJO=802P TT=460N)
.ENDS
*   Motorola 50 Volt  15 Amp  .12 ohm  N-Channel Power MOS-FET  07-26-1990
**********
*SRC=MTP15N06;MTP15N06;MOSFETs N;Power <=100V;60V 15A
*SYM=POWMOSN
.SUBCKT MTP15N06 10 20 30
*     TERMINALS:  D  G  S
M1   4  1  5  5  DMOS L=1U W=1U
RG  20  1  10
RD  10  4  56M
RDS  4  5  1.18MEG
CGD  7  4  1.18N
RCG  7  4  10MEG
MCG  7  9  1  1  SW
ECG  9  1  1  4  1
DGD  1  6  DCGD
MDG  6  8  4  4  SW
EDG  8  4  4  1  1
DDS  5  4  DSUB
LS   5 30  7.5N
.MODEL DMOS NMOS (LEVEL=3 VMAX=4.6MEG THETA=235.6M VTO=3.4
+ KP=3.8 RS=7.5M IS=1.8P CGSO=500U)
.MODEL SW   NMOS (LEVEL=3 VTO=0 KP=20)
.MODEL DCGD D (CJO=1.18N M=.5 VJ=.41)
.MODEL DSUB D (IS=1.8P RS=12.6M BV=60 IBV=.001
+ VJ=.8 M=.4 CJO=802P TT=460N)
.ENDS
*   Motorola 60 Volt  15 Amp  .12 ohm  N-Channel Power MOS-FET  07-26-1990
**********
*SRC=IRF720;IRF720;MOSFETs N;Power >100V;400V 2.5A
*SYM=POWMOSN
.SUBCKT IRF720   10 20 30
*     TERMINALS:  D  G  S
M1   1  2  3  3  DMOS L=1U W=1U
RG  20  2  60
RD  10  1  .711
RDS  1  3  7.12MEG
CGD  4  1  157P
RCG  4  1  10MEG
MCG  4  5  2  2  SW L=1U W=1U
ECG  5  2  2  1  1
DGD  2  6  DCGD
MDG  6  7  1  1  SW L=1U W=1U
EDG  7  1  1  2  1
DDS  3  1  DSUB
LS  30  3  7.5N
.MODEL DMOS NMOS (LEVEL=3 VMAX=15.6MEG THETA=70M VTO=3
+ KP=2 RS=38.5M IS=45F CGSO=430U)
.MODEL SW   NMOS (LEVEL=3 VTO=0 KP=20)
.MODEL DCGD D (CJO=157P M=.5 VJ=.41)
.MODEL DSUB D (IS=45F RS=0 BV=400 IBV=.001
+ VJ=.8 M=.4 CJO=320P TT=576N)
.ENDS
*   IR 400 Volt  2.5 Amp  1.5 ohm  N-Channel Power MOS-FET  09-15-1990
**********
*SRC=IRF721;IRF721;MOSFETs N;Power >100V;350V 2.5A
*SYM=POWMOSN
.SUBCKT IRF721   10 20 30
*     TERMINALS:  D  G  S
M1   1  2  3  3  DMOS L=1U W=1U
RG  20  2  60
RD  10  1  .711
RDS  1  3  7.12MEG
CGD  4  1  157P
RCG  4  1  10MEG
MCG  4  5  2  2  SW L=1U W=1U
ECG  5  2  2  1  1
DGD  2  6  DCGD
MDG  6  7  1  1  SW L=1U W=1U
EDG  7  1  1  2  1
DDS  3  1  DSUB
LS  30  3  7.5N
.MODEL DMOS NMOS (LEVEL=3 VMAX=15.6MEG THETA=70M VTO=3
+ KP=2 RS=38.5M IS=51.4F CGSO=430U)
.MODEL SW   NMOS (LEVEL=3 VTO=0 KP=20)
.MODEL DCGD D (CJO=157P M=.5 VJ=.41)
.MODEL DSUB D (IS=51.4F RS=0 BV=350 IBV=.001
+ VJ=.8 M=.4 CJO=320P TT=576N)
.ENDS
*   IR 350 Volt  2.5 Amp  1.5 ohm  N-Channel Power MOS-FET  09-15-1990
**********
*SRC=IRF722;IRF722;MOSFETs N;Power >100V;400V 2A
*SYM=POWMOSN
.SUBCKT IRF722   10 20 30
*     TERMINALS:  D  G  S
M1   1  2  3  3  DMOS L=1U W=1U
RG  20  2  75
RD  10  1  .854
RDS  1  3  8.9MEG
CGD  4  1  157P
RCG  4  1  10MEG
MCG  4  5  2  2  SW L=1U W=1U
ECG  5  2  2  1  1
DGD  2  6  DCGD
MDG  6  7  1  1  SW L=1U W=1U
EDG  7  1  1  2  1
DDS  3  1  DSUB
LS  30  3  7.5N
.MODEL DMOS NMOS (LEVEL=3 VMAX=15.6MEG THETA=70M VTO=3
+ KP=2 RS=46M IS=36F CGSO=430U)
.MODEL SW   NMOS (LEVEL=3 VTO=0 KP=20)
.MODEL DCGD D (CJO=157P M=.5 VJ=.41)
.MODEL DSUB D (IS=36F RS=0 BV=400 IBV=.001
+ VJ=.8 M=.4 CJO=320P TT=576N)
.ENDS
*   IR 400 Volt  2 Amp  1.8 ohm  N-Channel Power MOS-FET  09-15-1990
**********
*SRC=IRF723;IRF723;MOSFETs N;Power >100V;350V 2A
*SYM=POWMOSN
.SUBCKT IRF723   10 20 30
*     TERMINALS:  D  G  S
M1   1  2  3  3  DMOS L=1U W=1U
RG  20  2  75
RD  10  1  .854
RDS  1  3  8.9MEG
CGD  4  1  157P
RCG  4  1  10MEG
MCG  4  5  2  2  SW L=1U W=1U
ECG  5  2  2  1  1
DGD  2  6  DCGD
MDG  6  7  1  1  SW L=1U W=1U
EDG  7  1  1  2  1
DDS  3  1  DSUB
LS  30  3  7.5N
.MODEL DMOS NMOS (LEVEL=3 VMAX=15.6MEG THETA=70M VTO=3
+ KP=2 RS=46M IS=41.1F CGSO=430U)
.MODEL SW   NMOS (LEVEL=3 VTO=0 KP=20)
.MODEL DCGD D (CJO=157P M=.5 VJ=.41)
.MODEL DSUB D (IS=41.1F RS=0 BV=350 IBV=.001
+ VJ=.8 M=.4 CJO=320P TT=576N)
.ENDS
*   IR 350 Volt  2 Amp  1.8 ohm  N-Channel Power MOS-FET  09-15-1990
**********
*SRC=IRF730;IRF730;MOSFETs N;Power >100V;400V 3.5A
*SYM=POWMOSN
.SUBCKT IRF730   10 20 30
*     TERMINALS:  D  G  S
M1   1  2  3  3  DMOS L=1U W=1U
RG  20  2  42.8
RD  10  1  .379
RDS  1  3  5.08MEG
CGD  4  1  314P
RCG  4  1  10MEG
MCG  4  5  2  2  SW L=1U W=1U
ECG  5  2  2  1  1
DGD  2  6  DCGD
MDG  6  7  1  1  SW L=1U W=1U
EDG  7  1  1  2  1
DDS  3  1  DSUB
LS  30  3  7.5N
.MODEL DMOS NMOS (LEVEL=3 VMAX=15.6MEG THETA=70M VTO=3
+ KP=3.5 RS=21M IS=63F CGSO=660U)
.MODEL SW   NMOS (LEVEL=3 VTO=0 KP=20)
.MODEL DCGD D (CJO=314P M=.5 VJ=.41)
.MODEL DSUB D (IS=63F RS=0 BV=400 IBV=.001
+ VJ=.8 M=.4 CJO=441P TT=792N)
.ENDS
*   IR 400 Volt  3.5 Amp  .8 ohm  N-Channel Power MOS-FET  09-15-1990
**********
*SRC=IRF731;IRF731;MOSFETs N;Power >100V;350V 3.5A
*SYM=POWMOSN
.SUBCKT IRF731   10 20 30
*     TERMINALS:  D  G  S
M1   1  2  3  3  DMOS L=1U W=1U
RG  20  2  42.8
RD  10  1  .379
RDS  1  3  5.08MEG
CGD  4  1  314P
RCG  4  1  10MEG
MCG  4  5  2  2  SW L=1U W=1U
ECG  5  2  2  1  1
DGD  2  6  DCGD
MDG  6  7  1  1  SW L=1U W=1U
EDG  7  1  1  2  1
DDS  3  1  DSUB
LS  30  3  7.5N
.MODEL DMOS NMOS (LEVEL=3 VMAX=15.6MEG THETA=70M VTO=3
+ KP=3.5 RS=21M IS=72F CGSO=660U)
.MODEL SW   NMOS (LEVEL=3 VTO=0 KP=20)
.MODEL DCGD D (CJO=314P M=.5 VJ=.41)
.MODEL DSUB D (IS=72F RS=0 BV=350 IBV=.001
+ VJ=.8 M=.4 CJO=441P TT=792N)
.ENDS
*   IR 350 Volt  3.5 Amp  .8 ohm  N-Channel Power MOS-FET  09-15-1990
**********
*SRC=IRF732;IRF732;MOSFETs N;Power >100V;400V 3A
*SYM=POWMOSN
.SUBCKT IRF732   10 20 30
*     TERMINALS:  D  G  S
M1   1  2  3  3  DMOS L=1U W=1U
RG  20  2  50
RD  10  1  .474
RDS  1  3  5.93MEG
CGD  4  1  314P
RCG  4  1  10MEG
MCG  4  5  2  2  SW L=1U W=1U
ECG  5  2  2  1  1
DGD  2  6  DCGD
MDG  6  7  1  1  SW L=1U W=1U
EDG  7  1  1  2  1
DDS  3  1  DSUB
LS  30  3  7.5N
.MODEL DMOS NMOS (LEVEL=3 VMAX=15.6MEG THETA=70M VTO=3
+ KP=3.5 RS=26M IS=54F CGSO=660U)
.MODEL SW   NMOS (LEVEL=3 VTO=0 KP=20)
.MODEL DCGD D (CJO=314P M=.5 VJ=.41)
.MODEL DSUB D (IS=54F RS=0 BV=400 IBV=.001
+ VJ=.8 M=.4 CJO=441P TT=792N)
.ENDS
*   IR 400 Volt  3 Amp  1 ohm  N-Channel Power MOS-FET  09-15-1990
**********
*SRC=IRF733;IRF733;MOSFETs N;Power >100V;350V 3A
*SYM=POWMOSN
.SUBCKT IRF733   10 20 30
*     TERMINALS:  D  G  S
M1   1  2  3  3  DMOS L=1U W=1U
RG  20  2  50
RD  10  1  .474
RDS  1  3  5.93MEG
CGD  4  1  314P
RCG  4  1  10MEG
MCG  4  5  2  2  SW L=1U W=1U
ECG  5  2  2  1  1
DGD  2  6  DCGD
MDG  6  7  1  1  SW L=1U W=1U
EDG  7  1  1  2  1
DDS  3  1  DSUB
LS  30  3  7.5N
.MODEL DMOS NMOS (LEVEL=3 VMAX=15.6MEG THETA=70M VTO=3
+ KP=3.5 RS=26M IS=61.7F CGSO=660U)
.MODEL SW   NMOS (LEVEL=3 VTO=0 KP=20)
.MODEL DCGD D (CJO=314P M=.5 VJ=.41)
.MODEL DSUB D (IS=61.7F RS=0 BV=350 IBV=.001
+ VJ=.8 M=.4 CJO=441P TT=792N)
.ENDS
*   IR 350 Volt  3 Amp  1 ohm  N-Channel Power MOS-FET  09-15-1990
**********
*SRC=IRF740;IRF740;MOSFETs N;Power >100V;400V 10A
*SYM=POWMOSN
.SUBCKT IRF740   10 20 30
*     TERMINALS:  D  G  S
M1   1  2  3  3  DMOS L=1U W=1U
RG  20  2  15
RD  10  1  .397
RDS  1  3  1.78MEG
CGD  4  1  984P
RCG  4  1  10MEG
MCG  4  5  2  2  SW L=1U W=1U
ECG  5  2  2  1  1
DGD  2  6  DCGD
MDG  6  7  1  1  SW L=1U W=1U
EDG  7  1  1  2  1
DDS  3  1  DSUB
LS  30  3  7.5N
.MODEL DMOS NMOS (LEVEL=3 VMAX=10.6MEG THETA=2.7M VTO=3.3
+ KP=4.2 RS=29.5M IS=180F CGSO=1.27M)
.MODEL SW   NMOS (LEVEL=3 VTO=0 KP=20)
.MODEL DCGD D (CJO=984P M=.5 VJ=.41)
.MODEL DSUB D (IS=180F RS=0 BV=400 IBV=.001
+ VJ=.8 M=.4 CJO=1.10N TT=864N)
.ENDS
*   Motorola 400 Volt  10 Amp  .5 ohm  N-Channel Power MOS-FET  09-15-1990
**********
*SRC=IRF741;IRF741;MOSFETs N;Power >100V;350V 10A
*SYM=POWMOSN
.SUBCKT IRF741   10 20 30
*     TERMINALS:  D  G  S
M1   1  2  3  3  DMOS L=1U W=1U
RG  20  2  15
RD  10  1  .379
RDS  1  3  1.78MEG
CGD  4  1  984P
RCG  4  1  10MEG
MCG  4  5  2  2  SW L=1U W=1U
ECG  5  2  2  1  1
DGD  2  6  DCGD
MDG  6  7  1  1  SW L=1U W=1U
EDG  7  1  1  2  1
DDS  3  1  DSUB
LS  30  3  7.5N
.MODEL DMOS NMOS (LEVEL=3 VMAX=10.6MEG THETA=2.70M VTO=3.3
+ KP=4.2 RS=29.5M IS=205F CGSO=1.27M)
.MODEL SW   NMOS (LEVEL=3 VTO=0 KP=20)
.MODEL DCGD D (CJO=984P M=.5 VJ=.41)
.MODEL DSUB D (IS=205F RS=0 BV=350 IBV=.001
+ VJ=.8 M=.4 CJO=1.10N TT=864N)
.ENDS
*   Motorola 350 Volt  10 Amp  .5 ohm  N-Channel Power MOS-FET  09-15-1990
**********
*SRC=IRFAG20;IRFAG20;MOSFETs N;Power >100V;1000V 1.3A
*SYM=POWMOSN
.SUBCKT IRFAG20  10 20 30
*     TERMINALS:  D  G  S
M1   1  2  3  3  DMOS L=1U W=1U
RG  20  2  115
RD  10  1  4.74
RDS  1  3  13.6MEG
CGD  4  1  220P
RCG  4  1  10MEG
MCG  4  5  2  2  SW L=1U W=1U
ECG  5  2  2  1  1
DGD  2  6  DCGD
MDG  6  7  1  1  SW L=1U W=1U
EDG  7  1  1  2  1
DDS  3  1  DSUB
LS  30  3  13N
.MODEL DMOS NMOS (LEVEL=1 VTO=3.3
+ KP=1.7 RS=.251 IS=9.36F CGSO=492U)
.MODEL SW NMOS (LEVEL=1 VTO=0 KP=89.9M)
.MODEL DCGD D (CJO=220P M=.5 VJ=.41)
.MODEL DSUB D (IS=9.36F RS=0 VJ=.8 M=.4 CJO=208P TT=331N)
.ENDS
*   IR 1000 Volt  1.3 Amp  8.5 ohm  N-Channel Power MOS-FET  10-05-1990
**********
*SRC=IRFAG22;IRFAG22;MOSFETs N;Power >100V;1000V 1.2A
*SYM=POWMOSN
.SUBCKT IRFAG22  10 20 30
*     TERMINALS:  D  G  S
M1   1  2  3  3  DMOS L=1U W=1U
RG  20  2  125
RD  10  1  5.46
RDS  1  3  14.8MEG
CGD  4  1  220P
RCG  4  1  10MEG
MCG  4  5  2  2  SW L=1U W=1U
ECG  5  2  2  1  1
DGD  2  6  DCGD
MDG  6  7  1  1  SW L=1U W=1U
EDG  7  1  1  2  1
DDS  3  1  DSUB
LS  30  3  13N
.MODEL DMOS NMOS (LEVEL=1 VTO=3.3
+ KP=1.7 RS=.288 IS=8.64F CGSO=492U)
.MODEL SW NMOS (LEVEL=1 VTO=0 KP=89.9M)
.MODEL DCGD D (CJO=220P M=.5 VJ=.41)
.MODEL DSUB D (IS=8.64F RS=0 VJ=.8 M=.4 CJO=208P TT=331N)
.ENDS
*   IR 1000 Volt  1.2 Amp  11.5 ohm  N-Channel Power MOS-FET  10-05-1990
**********
*SRC=IRF150;IRF150;MOSFETs N;Power <=100V;100V 28A
*SYM=POWMOSN
.SUBCKT IRF150   10 20 30
*     TERMINALS:  D  G  S
M1   1  2  3  3  DMOS L=1U W=1U
RG  20  2  5.35
RD  10  1  4.3M
RDS  1  3  635K
CGD  4  1  2.75N
RCG  4  1  10MEG
MCG  4  5  2  2  SW L=1U W=1U
ECG  5  2  2  1  1
DGD  2  6  DCGD
MDG  6  7  1  1  SW L=1U W=1U
EDG  7  1  1  2  1
DDS  3  1  DSUB
LS  30  3  7.5N
.MODEL DMOS NMOS (LEVEL=3 VMAX=1.6MEG THETA=265.6M VTO=3.3
+ KP=9 RS=8.12M IS=2.01P CGSO=2.65M)
.MODEL SW NMOS (LEVEL=3 VTO=0 KP=.45)
.MODEL DCGD D (CJO=2.75N M=.5 VJ=.41)
.MODEL DSUB D (IS=2.01P RS=5.20M VJ=.8 M=.4 CJO=2.60N TT=720N)
.ENDS
*   IR 100 Volt  28 Amp  45M ohm  N-Channel Power MOS-FET  11-20-1990
**********
*SRC=IRF151;IRF151;MOSFETs N;Power <=100V;60V 28A
*SYM=POWMOSN
.SUBCKT IRF151   10 20 30
*     TERMINALS:  D  G  S
M1   1  2  3  3  DMOS L=1U W=1U
RG  20  2  5.35
RD  10  1  4.3M
RDS  1  3  635K
CGD  4  1  2.75N
RCG  4  1  10MEG
MCG  4  5  2  2  SW L=1U W=1U
ECG  5  2  2  1  1
DGD  2  6  DCGD
MDG  6  7  1  1  SW L=1U W=1U
EDG  7  1  1  2  1
DDS  3  1  DSUB
LS  30  3  7.5N
.MODEL DMOS NMOS (LEVEL=3 VMAX=1.6MEG THETA=265.6M VTO=3.3
+ KP=9 RS=8.12M IS=3.36P CGSO=2.65M)
.MODEL SW NMOS (LEVEL=3 VTO=0 KP=.45)
.MODEL DCGD D (CJO=2.75N M=.5 VJ=.41)
.MODEL DSUB D (IS=3.36P RS=5.67M VJ=.8 M=.4 CJO=2.60N TT=720N)
.ENDS
*   IR 60 Volt  28 Amp  45M ohm  N-Channel Power MOS-FET  11-20-1990
**********
*SRC=IRF152;IRF152;MOSFETs N;Power <=100V;100V 24A
*SYM=POWMOSN
.SUBCKT IRF152   10 20 30
*     TERMINALS:  D  G  S
M1   1  2  3  3  DMOS L=1U W=1U
RG  20  2  6.25
RD  10  1  10.5M
RDS  1  3  741K
CGD  4  1  2.75N
RCG  4  1  10MEG
MCG  4  5  2  2  SW L=1U W=1U
ECG  5  2  2  1  1
DGD  2  6  DCGD
MDG  6  7  1  1  SW L=1U W=1U
EDG  7  1  1  2  1
DDS  3  1  DSUB
LS  30  3  7.5N
.MODEL DMOS NMOS (LEVEL=3 VMAX=1.1MEG THETA=265.6M VTO=3.3
+ KP=9 RS=8.75M IS=1.72P CGSO=2.65M)
.MODEL SW NMOS (LEVEL=3 VTO=0 KP=.45)
.MODEL DCGD D (CJO=2.75N M=.5 VJ=.41)
.MODEL DSUB D (IS=1.72P RS=0 VJ=.8 M=.4 CJO=2.60N TT=720N)
.ENDS
*   IR 100 Volt  24 Amp  60M ohm  N-Channel Power MOS-FET  11-20-1990
**********
*SRC=IRF153;IRF153;MOSFETs N;Power <=100V;60V 24A
*SYM=POWMOSN
.SUBCKT IRF153   10 20 30
*     TERMINALS:  D  G  S
M1   1  2  3  3  DMOS L=1U W=1U
RG  20  2  6.25
RD  10  1  10.5M
RDS  1  3  741K
CGD  4  1  2.75N
RCG  4  1  10MEG
MCG  4  5  2  2  SW L=1U W=1U
ECG  5  2  2  1  1
DGD  2  6  DCGD
MDG  6  7  1  1  SW L=1U W=1U
EDG  7  1  1  2  1
DDS  3  1  DSUB
LS  30  3  7.5N
.MODEL DMOS NMOS (LEVEL=3 VMAX=1.1MEG THETA=265.6M VTO=3.3
+ KP=9 RS=8.75M IS=2.88P CGSO=2.65M)
.MODEL SW NMOS (LEVEL=3 VTO=0 KP=.45)
.MODEL DCGD D (CJO=2.75N M=.5 VJ=.41)
.MODEL DSUB D (IS=2.88P RS=0 VJ=.8 M=.4 CJO=2.60N TT=720N)
.ENDS
*   IR 60 Volt  24 Amp  60M ohm  N-Channel Power MOS-FET  11-20-1990
**********
*SRC=IRFD220;IRFD220;MOSFETs N;Power >100V;IR 200V 1A 0.8ohm DIP
*SYM=POWMOSN
.SUBCKT IRFD220  10 20 40
*     TERMINALS:  D  G  S
M1   1  2  3  3  DMOS L=1U W=1U
RD  10  1  0.379
RS  40  3  21M
RG  20  2  188
CGS  2  3  230P
EGD 12  0  2  1  1
VFB 14  0  0
FFB  2  1  VFB  1
CGD 13 14  385P
R1  13  0  1
D1  12 13  DLIM
DDG 15 14  DCGD
R2  12 15  1
D2  15  0  DLIM
DSD  3 10  DSUB
LS  30 40  6N
.MODEL DMOS NMOS (LEVEL=3 VMAX=417K THETA=58.1M ETA=2M VTO=3.1 KP=0.721)
.MODEL DCGD D (CJO=385P VJ=0.6 M=0.68)
.MODEL DSUB D (IS=3.32N N=1.5 RS=1.31 BV=200 CJO=301P VJ=0.8 M=0.42 TT=150N)
.MODEL DLIM D (IS=100U)
.ENDS 
**********
*SRC=IRFD221;IRFD221;MOSFETs N;Power >100V;150V 0.8A
*SYM=POWMOSN
.SUBCKT IRFD221  10 20 30
*     TERMINALS:  D  G  S
M1   1  2  3  3  DMOS L=1U W=1U
RG  20  2  187
RD  10  1  .236
RDS  1  3  22.2MEG
CGD  4  1  315P
RCG  4  1  10MEG
MCG  4  5  2  2  SW L=1U W=1U
ECG  5  2  2  1  1
DGD  2  6  DCGD
MDG  6  7  1  1  SW L=1U W=1U
EDG  7  1  1  2  1
DDS  3  1  DSUB
LS  30  3  6N
.MODEL DMOS NMOS (LEVEL=3 VMAX=19.1MEG THETA=23.6M VTO=2.8
+ KP=1.25 RS=11.5M IS=38.4F CGSO=410U)
.MODEL SW NMOS (LEVEL=3 VTO=0 KP=55M)
.MODEL DCGD D (CJO=315P M=.5 VJ=.41)
.MODEL DSUB D (IS=38.4F RS=.896 VJ=.8 M=.4 CJO=441P TT=216N)
.ENDS
*  Harris 150 Volt  .8 Amp  .5 ohm  N-Channel Power MOS-FET  11-29-1990
**********
*SRC=IRFD222;IRFD222;MOSFETs N;Power >100V;200V 0.7A
*SYM=POWMOSN
.SUBCKT IRFD222  10 20 30
*     TERMINALS:  D  G  S
M1   1  2  3  3  DMOS L=1U W=1U
RG  20  2  214
RD  10  1  .379
RDS  1  3  25.4MEG
CGD  4  1  315P
RCG  4  1  10MEG
MCG  4  5  2  2  SW L=1U W=1U
ECG  5  2  2  1  1
DGD  2  6  DCGD
MDG  6  7  1  1  SW L=1U W=1U
EDG  7  1  1  2  1
DDS  3  1  DSUB
LS  30  3  6N
.MODEL DMOS NMOS (LEVEL=3 VMAX=18.1MEG THETA=28.6M VTO=2.8
+ KP=1.25 RS=15M IS=25.2F CGSO=410U)
.MODEL SW NMOS (LEVEL=3 VTO=0 KP=55M)
.MODEL DCGD D (CJO=315P M=.5 VJ=.41)
.MODEL DSUB D (IS=25.2F RS=.618 VJ=.8 M=.4 CJO=441P TT=216N)
.ENDS
*  Harris 200 Volt  .7 Amp  .8 ohm  N-Channel Power MOS-FET  11-29-1990
**********
*SRC=IRFD223;IRFD223;MOSFETs N;Power >100V;150V 0.7A
*SYM=POWMOSN
.SUBCKT IRFD223  10 20 30
*     TERMINALS:  D  G  S
M1   1  2  3  3  DMOS L=1U W=1U
RG  20  2  214
RD  10  1  .379
RDS  1  3  25.4MEG
CGD  4  1  315P
RCG  4  1  10MEG
MCG  4  5  2  2  SW L=1U W=1U
ECG  5  2  2  1  1
DGD  2  6  DCGD
MDG  6  7  1  1  SW L=1U W=1U
EDG  7  1  1  2  1
DDS  3  1  DSUB
LS  30  3  6N
.MODEL DMOS NMOS (LEVEL=3 VMAX=18.1MEG THETA=28.6M VTO=2.8
+ KP=1.25 RS=15M IS=33.6F CGSO=410U)
.MODEL SW NMOS (LEVEL=3 VTO=0 KP=55M)
.MODEL DCGD D (CJO=315P M=.5 VJ=.41)
.MODEL DSUB D (IS=33.6F RS=.629 VJ=.8 M=.4 CJO=441P TT=216N)
.ENDS
*  Harris 150 Volt  .7 Amp  .8 ohm  N-Channel Power MOS-FET  11-29-1990
**********
*SRC=IRF450;IRF450;MOSFETs N;Power >100V;500V 10A
*SYM=POWMOSN
.SUBCKT IRF450   10 20 30
*     TERMINALS:  D  G  S
M1   1  2  3  3  DMOS L=1U W=1U
RG  20  2  15
RD  10  1  .141
RDS  1  3  1.78MEG
CGD  4  1  787P
RCG  4  1  10MEG
MCG  4  5  2  2  SW L=1U W=1U
ECG  5  2  2  1  1
DGD  2  6  DCGD
MDG  6  7  1  1  SW L=1U W=1U
EDG  7  1  1  2  1
DDS  3  1  DSUB
LS  30  3  10N
.MODEL DMOS NMOS (LEVEL=3 VMAX=17.1MEG THETA=63.6M VTO=3.3
+ KP=9 RS=8.5M IS=144F CGSO=1.9M)
.MODEL SW NMOS (LEVEL=3 VTO=0 KP=.45)
.MODEL DCGD D (CJO=787P M=.5 VJ=.41)
.MODEL DSUB D (IS=144F RS=0 VJ=.8 M=.4 CJO=1.2N TT=576N)
.ENDS
*  IR 500 Volt  10 Amp  .3 ohm  N-Channel Power MOS-FET  11-29-1990
**********
*SRC=IRF451;IRF451;MOSFETs N;Power >100V;450V 10A
*SYM=POWMOSN
.SUBCKT IRF451   10 20 30
*     TERMINALS:  D  G  S
M1   1  2  3  3  DMOS L=1U W=1U
RG  20  2  15
RD  10  1  .141
RDS  1  3  1.78MEG
CGD  4  1  787P
RCG  4  1  10MEG
MCG  4  5  2  2  SW L=1U W=1U
ECG  5  2  2  1  1
DGD  2  6  DCGD
MDG  6  7  1  1  SW L=1U W=1U
EDG  7  1  1  2  1
DDS  3  1  DSUB
LS  30  3  10N
.MODEL DMOS NMOS (LEVEL=3 VMAX=17.1MEG THETA=63.6M VTO=3.3
+ KP=9 RS=8.5M IS=160F CGSO=1.9M)
.MODEL SW NMOS (LEVEL=3 VTO=0 KP=.45)
.MODEL DCGD D (CJO=787P M=.5 VJ=.41)
.MODEL DSUB D (IS=160F RS=0 VJ=.8 M=.4 CJO=1.2N TT=576N)
.ENDS
*  IR 450 Volt  10 Amp  .3 ohm  N-Channel Power MOS-FET  11-29-1990
**********
*SRC=IRF452;IRF452;MOSFETs N;Power >100V;500V 8A
*SYM=POWMOSN
.SUBCKT IRF452   10 20 30
*     TERMINALS:  D  G  S
M1   1  2  3  3  DMOS L=1U W=1U
RG  20  2  18.7
RD  10  1  .189
RDS  1  3  2.22MEG
CGD  4  1  787P
RCG  4  1  10MEG
MCG  4  5  2  2  SW L=1U W=1U
ECG  5  2  2  1  1
DGD  2  6  DCGD
MDG  6  7  1  1  SW L=1U W=1U
EDG  7  1  1  2  1
DDS  3  1  DSUB
LS  30  3  10N
.MODEL DMOS NMOS (LEVEL=3 VMAX=21.1MEG THETA=23.6M VTO=3.4
+ KP=7.7 RS=9M IS=115F CGSO=1.9M)
.MODEL SW NMOS (LEVEL=3 VTO=0 KP=.45)
.MODEL DCGD D (CJO=787P M=.5 VJ=.41)
.MODEL DSUB D (IS=115F RS=0 VJ=.8 M=.4 CJO=1.2N TT=576N)
.ENDS
*  IR 500 Volt  8 Amp  .4 ohm  N-Channel Power MOS-FET  11-29-1990
**********
*SRC=IRF453;IRF453;MOSFETs N;Power >100V;450V 8A
*SYM=POWMOSN
.SUBCKT IRF453   10 20 30
*     TERMINALS:  D  G  S
M1   1  2  3  3  DMOS L=1U W=1U
RG  20  2  18.7
RD  10  1  .189
RDS  1  3  2.22MEG
CGD  4  1  787P
RCG  4  1  10MEG
MCG  4  5  2  2  SW L=1U W=1U
ECG  5  2  2  1  1
DGD  2  6  DCGD
MDG  6  7  1  1  SW L=1U W=1U
EDG  7  1  1  2  1
DDS  3  1  DSUB
LS  30  3  10N
.MODEL DMOS NMOS (LEVEL=3 VMAX=21.1MEG THETA=23.6M VTO=3.4
+ KP=7.7 RS=9M IS=128F CGSO=1.9M)
.MODEL SW NMOS (LEVEL=3 VTO=0 KP=.45)
.MODEL DCGD D (CJO=787P M=.5 VJ=.41)
.MODEL DSUB D (IS=128F RS=0 VJ=.8 M=.4 CJO=1.2N TT=576N)
.ENDS
*  IR 450 Volt  8 Amp  .4 ohm  N-Channel Power MOS-FET  11-29-1990
**********
*SRC=APT5540;APT5540;MOSFETs N;Power >100V;550V 15.5A
*SYM=POWMOSN
.SUBCKT APT5540  10 20 30
*     TERMINALS:  D  G  S
M1   1  2  3  3  DMOS L=1U W=1U
RG  20  2  8.82
RD  10  1  .261
RDS  1  3  988K
CGD  4  1  1.21N
RCG  4  1  10MEG
MCG  4  5  2  2  SW L=1U W=1U
ECG  5  2  2  1  1
DGD  2  6  DCGD
MDG  6  7  1  1  SW L=1U W=1U
EDG  7  1  1  2  1
DDS  3  1  DSUB
LS  30  3  7.5N
.MODEL DMOS NMOS (LEVEL=3 VMAX=28.1MEG THETA=9.6M VTO=3.05
+ KP=3.18 RS=4.9M IS=222F CGSO=2.24M)
.MODEL SW NMOS (LEVEL=3 VTO=0 KP=.204)
.MODEL DCGD D (CJO=1.21N M=.5 VJ=.41)
.MODEL DSUB D (IS=222F RS=0 VJ=.8 M=.4 CJO=1.13N TT=481N)
.ENDS
*  550 Volt  15.5 Amp  .3 ohm  N-Channel Power MOS-FET  12-03-1990
**********
*SRC=APT6040;APT6040;MOSFETs N;Power >100V;600V 15.5A
*SYM=POWMOSN
.SUBCKT APT6040  10 20 30
*     TERMINALS:  D  G  S
M1   1  2  3  3  DMOS L=1U W=1U
RG  20  2  8.33
RD  10  1  .265
RDS  1  3  988K
CGD  4  1  1.21N
RCG  4  1  10MEG
MCG  4  5  2  2  SW L=1U W=1U
ECG  5  2  2  1  1
DGD  2  6  DCGD
MDG  6  7  1  1  SW L=1U W=1U
EDG  7  1  1  2  1
DDS  3  1  DSUB
LS  30  3  7.5N
.MODEL DMOS NMOS (LEVEL=3 VMAX=28.3MEG THETA=9.6M VTO=3.05
+ KP=3.18 RS=4.75M IS=216F CGSO=2.24M)
.MODEL SW NMOS (LEVEL=3 VTO=0 KP=.159)
.MODEL DCGD D (CJO=1.21N M=.5 VJ=.41)
.MODEL DSUB D (IS=216F RS=0 VJ=.8 M=.4 CJO=1.13N TT=483N)
.ENDS
*   600 Volt  15.5 Amp  .35 ohm  N-Channel Power MOS-FET  12-03-1990
**********
*SRC=APT5545;APT5545;MOSFETs N;Power >100V;550V 14.5A
*SYM=POWMOSN
.SUBCKT APT5545  10 20 30
*     TERMINALS:  D  G  S
M1   1  2  3  3  DMOS L=1U W=1U
RG  20  2  8.82
RD  10  1  .275
RDS  1  3  1.04MEG
CGD  4  1  1.21N
RCG  4  1  10MEG
MCG  4  5  2  2  SW L=1U W=1U
ECG  5  2  2  1  1
DGD  2  6  DCGD
MDG  6  7  1  1  SW L=1U W=1U
EDG  7  1  1  2  1
DDS  3  1  DSUB
LS  30  3  7.5N
.MODEL DMOS NMOS (LEVEL=3 VMAX=27.3MEG THETA=10.6M VTO=3.05
+ KP=3.08 RS=5.75M IS=222F CGSO=2.24M)
.MODEL SW NMOS (LEVEL=3 VTO=0 KP=.159)
.MODEL DCGD D (CJO=1.21N M=.5 VJ=.41)
.MODEL DSUB D (IS=222F RS=0 VJ=.8 M=.4 CJO=1.13N TT=475N)
.ENDS
*   550 Volt  14.5 Amp  .35 ohm  N-Channel Power MOS-FET  12-03-1990
**********
*SRC=APT6045;APT6045;MOSFETs N;Power >100V;550V 14.5A
*SYM=POWMOSN
.SUBCKT APT6045  10 20 30
*     TERMINALS:  D  G  S
M1   1  2  3  3  DMOS L=1U W=1U
RG  20  2  8.82
RD  10  1  .275
RDS  1  3  1.04MEG
CGD  4  1  1.21N
RCG  4  1  10MEG
MCG  4  5  2  2  SW L=1U W=1U
ECG  5  2  2  1  1
DGD  2  6  DCGD
MDG  6  7  1  1  SW L=1U W=1U
EDG  7  1  1  2  1
DDS  3  1  DSUB
LS  30  3  7.5N
.MODEL DMOS NMOS (LEVEL=3 VMAX=27.3MEG THETA=10.6M VTO=3.05
+ KP=3.08 RS=5.75M IS=204F CGSO=2.24M)
.MODEL SW NMOS (LEVEL=3 VTO=0 KP=.159)
.MODEL DCGD D (CJO=1.21N M=.5 VJ=.41)
.MODEL DSUB D (IS=204F RS=0 VJ=.8 M=.4 CJO=1.13N TT=475N)
.ENDS
*   600 Volt  14.5 Amp  .35 ohm  N-Channel Power MOS-FET  12-03-1990
**********
*SRC=RFL2N05;RFL2N05;MOSFETs N;Power <=100V;50V 2A
*SYM=POWMOSN
.SUBCKT RFL2N05  10 20 30
*     TERMINALS:  D  G  S
M1   1  2  3  3  DMOS L=1U W=1U
RG  20  2  75
RD  10  1  .104
RDS  1  3  8.9MEG
CGD  4  1  236P
RCG  4  1  10MEG
MCG  4  5  2  2  SW L=1U W=1U
ECG  5  2  2  1  1
DGD  2  6  DCGD
MDG  6  7  1  1  SW L=1U W=1U
EDG  7  1  1  2  1
DDS  3  1  DSUB
LS  30  3  7.5N
.MODEL DMOS NMOS (LEVEL=3 VMAX=30.4MEG THETA=.12 VTO=3.5
+ KP=.400 RS=18M IS=288F CGSO=100P)
.MODEL SW NMOS (LEVEL=3 VTO=0 KP=20)
.MODEL DCGD D (CJO=100P M=.3 VJ=.61)
.MODEL DSUB D (IS=288F RS=0 VJ=.8 M=.4 CJO=220P TT=144N)
.ENDS
*   Harris 50 Volt  2 Amp  .75 ohm  N-Channel Power MOS-FET  02-22-1991
**********
*SRC=RFL2N06;RFL2N06;MOSFETs N;Power <=100V;60V 2A
*SYM=POWMOSN
.SUBCKT RFL2N06  10 20 30
*     TERMINALS:  D  G  S
M1   1  2  3  3  DMOS L=1U W=1U
RG  20  2  75
RD  10  1  .104
RDS  1  3  8.9MEG
CGD  4  1  236P
RCG  4  1  10MEG
MCG  4  5  2  2  SW L=1U W=1U
ECG  5  2  2  1  1
DGD  2  6  DCGD
MDG  6  7  1  1  SW L=1U W=1U
EDG  7  1  1  2  1
DDS  3  1  DSUB
LS  30  3  7.5N
.MODEL DMOS NMOS (LEVEL=3 VMAX=30.4MEG THETA=.12 VTO=3.5
+ KP=.400 RS=18M IS=240F CGSO=100P)
.MODEL SW NMOS (LEVEL=3 VTO=0 KP=20)
.MODEL DCGD D (CJO=100P M=.3 VJ=.61)
.MODEL DSUB D (IS=240F RS=0 VJ=.8 M=.4 CJO=220P TT=144N)
.ENDS
*   Harris 60 Volt  2 Amp  .75 ohm  N-Channel Power MOS-FET  02-22-1991
**********
*SRC=RFP4N05;RFP4N05;MOSFETs N;Power <=100V;50V 4A
*SYM=POWMOSN
.SUBCKT RFP4N05  10 20 30
*     TERMINALS:  D  G  S
M1   1  2  3  3  DMOS L=1U W=1U
RG  20  2  75
RD  10  1  .104
RDS  1  3  8.9MEG
CGD  4  1  236P
RCG  4  1  10MEG
MCG  4  5  2  2  SW L=1U W=1U
ECG  5  2  2  1  1
DGD  2  6  DCGD
MDG  6  7  1  1  SW L=1U W=1U
EDG  7  1  1  2  1
DDS  3  1  DSUB
LS  30  3  7.5N
.MODEL DMOS NMOS (LEVEL=3 VMAX=30.4MEG THETA=.12 VTO=3.5
+ KP=.400 RS=18M IS=576F CGSO=100P)
.MODEL SW NMOS (LEVEL=3 VTO=0 KP=20)
.MODEL DCGD D (CJO=100P M=.3 VJ=.61)
.MODEL DSUB D (IS=576F RS=0 VJ=.8 M=.4 CJO=220P TT=144N)
.ENDS
*   Harris 50 Volt  4 Amp  .6 ohm  N-Channel Power MOS-FET  02-22-1991
**********
*SRC=RFP4N06;RFP4N06;MOSFETs N;Power <=100V;60V 4A
*SYM=POWMOSN
.SUBCKT RFP4N06  10 20 30
*     TERMINALS:  D  G  S
M1   1  2  3  3  DMOS L=1U W=1U
RG  20  2  75
RD  10  1  .104
RDS  1  3  8.9MEG
CGD  4  1  236P
RCG  4  1  10MEG
MCG  4  5  2  2  SW L=1U W=1U
ECG  5  2  2  1  1
DGD  2  6  DCGD
MDG  6  7  1  1  SW L=1U W=1U
EDG  7  1  1  2  1
DDS  3  1  DSUB
LS  30  3  7.5N
.MODEL DMOS NMOS (LEVEL=3 VMAX=30.4MEG THETA=.12 VTO=3.5
+ KP=.400 RS=18M IS=480F CGSO=100P)
.MODEL SW NMOS (LEVEL=3 VTO=0 KP=20)
.MODEL DCGD D (CJO=100P M=.3 VJ=.61)
.MODEL DSUB D (IS=480F RS=0 VJ=.8 M=.4 CJO=220P TT=144N)
.ENDS
*   Harris 60 Volt  4 Amp  .6 ohm  N-Channel Power MOS-FET  02-22-1991
**********
*SRC=RFL4N12;RFL4N12;MOSFETs N;Power >100V;120V 4A
*SYM=POWMOSN
.SUBCKT RFL4N12  10 20 30
*     TERMINALS:  D  G  S
M1   1  2  3  3  DMOS L=1U W=1U
RG  20  2  37.5
RD  10  1  .109
RDS  1  3  4.45MEG
CGD  4  1  393P
RCG  4  1  10MEG
MCG  4  5  2  2  SW L=1U W=1U
ECG  5  2  2  1  1
DGD  2  6  DCGD
MDG  6  7  1  1  SW L=1U W=1U
EDG  7  1  1  2  1
DDS  3  1  DSUB
LS  30  3  7.5N
.MODEL DMOS NMOS (LEVEL=3 VMAX=59.7MEG THETA=58.2M VTO=3.55
+ KP=2.2 RS=5M IS=240F CGSO=485U)
.MODEL SW NMOS (LEVEL=3 VTO=0 KP=75M)
.MODEL DCGD D (CJO=353P M=.39 VJ=.41)
.MODEL DSUB D (IS=240F RS=.363 VJ=.9 M=.13 CJO=821P TT=288N)
.ENDS
*   Harris 120 Volt  4 Amp  .4 ohm  N-Channel Power MOS-FET  02-28-1991
**********
*SRC=RFL4N15;RFL4N15;MOSFETs N;Power >100V;150V 4A
*SYM=POWMOSN
.SUBCKT RFL4N15  10 20 30
*     TERMINALS:  D  G  S
M1   1  2  3  3  DMOS L=1U W=1U
RG  20  2  37.5
RD  10  1  .109
RDS  1  3  4.45MEG
CGD  4  1  393P
RCG  4  1  10MEG
MCG  4  5  2  2  SW L=1U W=1U
ECG  5  2  2  1  1
DGD  2  6  DCGD
MDG  6  7  1  1  SW L=1U W=1U
EDG  7  1  1  2  1
DDS  3  1  DSUB
LS  30  3  7.5N
.MODEL DMOS NMOS (LEVEL=3 VMAX=59.7MEG THETA=58.2M VTO=3.55
+ KP=2.2 RS=5M IS=192F CGSO=485U)
.MODEL SW NMOS (LEVEL=3 VTO=0 KP=75M)
.MODEL DCGD D (CJO=353P M=.39 VJ=.41)
.MODEL DSUB D (IS=192F RS=.363 VJ=.9 M=.13 CJO=821P TT=288N)
.ENDS
*   Harris 150 Volt  4 Amp  .4 ohm  N-Channel Power MOS-FET  02-28-1991
**********
*SRC=IRF220;IRF220;MOSFETs N;Power >100V;200V 4A
*SYM=POWMOSN
.SUBCKT IRF220   10 20 30