**********
* Copyright Intusoft 1988-1997
* All Rights Reserved
**********
**********
*SRC=IRFF220;IRFF220;MOSFETs N;Power >100V;200V 3.5A 
*SYM=POWMOSN
.SUBCKT IRFF220  10 20 40
*     TERMINALS:  D  G  S
* Harris 200 Volt  3.5 Amp  .8 ohm  N-Channel Power MOSFET  08-01-1993
M1   1  2  3  3  DMOS L=1U W=1U
RD  100  1  .379
RS  30  3  21M
RG  20  2  70.6
CGS  2  3  275P
EGD 12  0  2  1  1
VFB 14  0  0
FFB  2  1  VFB  1
CGD 13 14  301P
R1  13  0  1
D1  12 13  DLIM
DDG 15 14  DCGD
R2  12 15  1
D2  15  0  DLIM
DSD  3 100  DSUB
LS  30 40  15N
LD  10 100 5N
.MODEL DMOS NMOS (LEVEL=3 THETA=54.5M VMAX=416K ETA=.2M VTO=3.2 KP=2.48)
.MODEL DCGD D (CJO=301P VJ=.6 M=.68)
.MODEL DSUB D (IS=14.5N N=1.5 RS=.357 BV=200 CJO=322P VJ=.8 M=.42 TT=350N)
.MODEL DLIM D (IS=100U)
.ENDS 
**********
*SRC=IRFF221;IRFF221;MOSFETs N;Power >100V;150V 3.5A 
*SYM=POWMOSN
.SUBCKT IRFF221  10 20 40
*     TERMINALS:  D  G  S
* Harris 150 Volt  3.5 Amp  .8 ohm  N-Channel Power MOSFET  08-01-1993
M1   1  2  3  3  DMOS L=1U W=1U
RD  100  1  .379
RS  30  3  21M
RG  20  2  98.4
CGS  2  3  237P
EGD 12  0  2  1  1
VFB 14  0  0
FFB  2  1  VFB  1
CGD 13 14  275P
R1  13  0  1
D1  12 13  DLIM
DDG 15 14  DCGD
R2  12 15  1
D2  15  0  DLIM
DSD  3 100  DSUB
LS  30 40  15N
LD  10 100 5N
.MODEL DMOS NMOS (LEVEL=3 THETA=86.2M VMAX=342K ETA=.2M VTO=3.2 KP=2.76)
.MODEL DCGD D (CJO=275P VJ=.6 M=.68)
.MODEL DSUB D (IS=14.5N N=1.5 RS=.357 BV=150 CJO=290P VJ=.8 M=.42 TT=350N)
.MODEL DLIM D (IS=100U)
.ENDS 
**********
*SRC=IRFF222;IRFF222;MOSFETs N;Power >100V;200V 3.0A 
*SYM=POWMOSN
.SUBCKT IRFF222  10 20 40
*     TERMINALS:  D  G  S
* Harris 200 Volt  3 Amp  1.2 ohm  N-Channel Power MOSFET  08-01-1993
M1   1  2  3  3  DMOS L=1U W=1U
RD  100  1  .569
RS  30  3  31M
RG  20  2  105
CGS  2  3  280P
EGD 12  0  2  1  1
VFB 14  0  0
FFB  2  1  VFB  1
CGD 13 14  256P
R1  13  0  1
D1  12 13  DLIM
DDG 15 14  DCGD
R2  12 15  1
D2  15  0  DLIM
DSD  3 100  DSUB
LS  30 40  15N
LD  10 100 5N
.MODEL DMOS NMOS (LEVEL=3 THETA=76.2M VMAX=466K ETA=.2M VTO=3.2 KP=2.69)
.MODEL DCGD D (CJO=256P VJ=.6 M=.68)
.MODEL DSUB D (IS=12.4N N=1.5 RS=.416 BV=200 CJO=344P VJ=.8 M=.42 TT=350N)
.MODEL DLIM D (IS=100U)
.ENDS 
**********
*SRC=IRFF223;IRFF223;MOSFETs N;Power >100V;150V 3.0A 
*SYM=POWMOSN
.SUBCKT IRFF223  10 20 40
*     TERMINALS:  D  G  S
* Harris 150 Volt  3 Amp  1.2 ohm  N-Channel Power MOSFET  08-01-1993
M1   1  2  3  3  DMOS L=1U W=1U
RD  100  1  .569
RS  30  3  31M
RG  20  2  94
CGS  2  3  275P
EGD 12  0  2  1  1
VFB 14  0  0
FFB  2  1  VFB  1
CGD 13 14  321P
R1  13  0  1
D1  12 13  DLIM
DDG 15 14  DCGD
R2  12 15  1
D2  15  0  DLIM
DSD  3 100  DSUB
LS  30 40  15N
LD  10 100 5N
.MODEL DMOS NMOS (LEVEL=3 THETA=56.2M VMAX=312K ETA=.2M VTO=3.2 KP=2.75)
.MODEL DCGD D (CJO=321P VJ=.6 M=.68)
.MODEL DSUB D (IS=12.4N N=1.5 RS=.416 BV=150 CJO=322P VJ=.8 M=.42 TT=350N)
.MODEL DLIM D (IS=100U)
.ENDS 
**********
*SRC=IRFF230;IRFF230;MOSFETs N;Power >100V;200V 5.5A 
*SYM=POWMOSN
.SUBCKT IRFF230  10 20 40
*     TERMINALS:  D  G  S
* Harris 200 Volt  5.5 Amp  .4 ohm  N-Channel Power MOSFET  08-01-1993
M1   1  2  3  3  DMOS L=1U W=1U
RD  100  1  .189
RS  30  3  11M
RG  20  2  15
CGS  2  3  380P
EGD 12  0  2  1  1
VFB 14  0  0
FFB  2  1  VFB  1
CGD 13 14  759P
R1  13  0  1
D1  12 13  DLIM
DDG 15 14  DCGD
R2  12 15  1
D2  15  0  DLIM
DSD  3 100  DSUB
LS  30 40  15N
LD  10 100 5N
.MODEL DMOS NMOS (LEVEL=3 THETA=64.5M VMAX=506K ETA=.2M VTO=3.3 KP=4.17)
.MODEL DCGD D (CJO=759P VJ=.6 M=.68)
.MODEL DSUB D (IS=22.8N N=1.5 RS=.227 BV=200 CJO=764P VJ=.8 M=.42 TT=450N)
.MODEL DLIM D (IS=100U)
.ENDS 
**********
*SRC=IRFF231;IRFF231;MOSFETs N;Power >100V;150V 5.5A 
*SYM=POWMOSN
.SUBCKT IRFF231  10 20 40
*     TERMINALS:  D  G  S
* Harris 150 Volt  5.5 Amp  .4 ohm  N-Channel Power MOSFET  08-01-1993
M1   1  2  3  3  DMOS L=1U W=1U
RD  100  1  .189
RS  30  3  11M
RG  20  2  20
CGS  2  3  255P
EGD 12  0  2  1  1
VFB 14  0  0
FFB  2  1  VFB  1
CGD 13 14  577P
R1  13  0  1
D1  12 13  DLIM
DDG 15 14  DCGD
R2  12 15  1
D2  15  0  DLIM
DSD  3 100  DSUB
LS  30 40  15N
LD  10 100 5N
.MODEL DMOS NMOS (LEVEL=3 THETA=69.5M VMAX=312K ETA=272U VTO=3.3 KP=4.87)
.MODEL DCGD D (CJO=577P VJ=.6 M=.68)
.MODEL DSUB D (IS=22.8N N=1.5 RS=.227 BV=150 CJO=559P VJ=.8 M=.42 TT=450N)
.MODEL DLIM D (IS=100U)
.ENDS 
**********
*SRC=IRFF232;IRFF232;MOSFETs N;Power >100V;200V 4.5A 
*SYM=POWMOSN
.SUBCKT IRFF232  10 20 40
*     TERMINALS:  D  G  S
* Harris 200 Volt  5 Amp  .6 ohm  N-Channel Power MOSFET  08-01-1993
M1   1  2  3  3  DMOS L=1U W=1U
RD  100  1  .284
RS  30  3  16M
RG  20  2  25
CGS  2  3  260P
EGD 12  0  2  1  1
VFB 14  0  0
FFB  2  1  VFB  1
CGD 13 14  513P
R1  13  0  1
D1  12 13  DLIM
DDG 15 14  DCGD
R2  12 15  1
D2  15  0  DLIM
DSD  3 100  DSUB
LS  30 40  15N
LD  10 100 5N
.MODEL DMOS NMOS (LEVEL=3 THETA=56.2M VMAX=416K ETA=200U VTO=3.2 KP=4.2)
.MODEL DCGD D (CJO=513P VJ=.6 M=.68)
.MODEL DSUB D (IS=20.7N N=1.5 RS=.25 BV=200 CJO=688P VJ=.8 M=.42 TT=450N)
.MODEL DLIM D (IS=100U)
.ENDS 
**********
*SRC=IRFF233;IRFF233;MOSFETs N;Power >100V;150V 4.5A 
*SYM=POWMOSN
.SUBCKT IRFF233  10 20 40
*     TERMINALS:  D  G  S
* Harris 150 Volt  5 Amp  .6 ohm  N-Channel Power MOSFET  08-01-1993
M1   1  2  3  3  DMOS L=1U W=1U
RD  100  1  .284
RS  30  3  16M
RG  20  2  27
CGS  2  3  310P
EGD 12  0  2  1  1
VFB 14  0  0
FFB  2  1  VFB  1
CGD 13 14  513P
R1  13  0  1
D1  12 13  DLIM
DDG 15 14  DCGD
R2  12 15  1
D2  15  0  DLIM
DSD  3 100  DSUB
LS  30 40  15N
LD  10 100 5N
.MODEL DMOS NMOS (LEVEL=3 THETA=56.2M VMAX=312K ETA=200U VTO=3.2 KP=4.68)
.MODEL DCGD D (CJO=513P VJ=.6 M=.68)
.MODEL DSUB D (IS=20.7N N=1.5 RS=.25 BV=150 CJO=688P VJ=.8 M=.42 TT=450N)
.MODEL DLIM D (IS=100U)
.ENDS 
**********
*SRC=IRFF310;IRFF310;MOSFETs N;Power >100V;400V 1.35A 
*SYM=POWMOSN
.SUBCKT IRFF310  10 20 40
*     TERMINALS:  D  G  S
* Harris 400 Volt  1.35 Amp  3.6 ohm  N-Channel Power MOSFET  08-01-1993
M1   1  2  3  3  DMOS L=1U W=1U
RD  100  1  1.7
RS  30  3  91M
RG  20  2  87
CGS  2  3  94.6P
EGD 12  0  2  1  1
VFB 14  0  0
FFB  2  1  VFB  1
CGD 13 14  69.3P
R1  13  0  1
D1  12 13  DLIM
DDG 15 14  DCGD
R2  12 15  1
D2  15  0  DLIM
DSD  3 100  DSUB
LS  30 40  15N
LD  10 100 5N
.MODEL DMOS NMOS (LEVEL=3 THETA=87.3M VMAX=753K ETA=185U VTO=3.8 KP=1.26)
.MODEL DCGD D (CJO=69.3P VJ=.6 M=.68)
.MODEL DSUB D (IS=5.6N N=1.5 RS=.629 BV=400 CJO=105P VJ=.8 M=.42 TT=380N)
.MODEL DLIM D (IS=100U)
.ENDS 
**********
*SRC=IRFF311;IRFF311;MOSFETs N;Power >100V;350V 1.35A 
*SYM=POWMOSN
.SUBCKT IRFF311  10 20 40
*     TERMINALS:  D  G  S
* Harris 350 Volt  1.35 Amp  3.6 ohm  N-Channel Power MOSFET  08-01-1993
M1   1  2  3  3  DMOS L=1U W=1U
RD  100  1  1.7
RS  30  3  91M
RG  20  2  180
CGS  2  3  32.1P
EGD 12  0  2  1  1
VFB 14  0  0
FFB  2  1  VFB  1
CGD 13 14  40.7P
R1  13  0  1
D1  12 13  DLIM
DDG 15 14  DCGD
R2  12 15  1
D2  15  0  DLIM
DSD  3 100  DSUB
LS  30 40  15N
LD  10 100 5N
.MODEL DMOS NMOS (LEVEL=3 THETA=87.3M VMAX=529K ETA=185U VTO=3.8 KP=1.3)
.MODEL DCGD D (CJO=40.7P VJ=.6 M=.68)
.MODEL DSUB D (IS=5.6N N=1.5 RS=.629 BV=350 CJO=62.2P VJ=.8 M=.42 TT=380N)
.MODEL DLIM D (IS=100U)
.ENDS 
**********
*SRC=IRFF312;IRFF312;MOSFETs N;Power >100V;400V 1.15A 
*SYM=POWMOSN
.SUBCKT IRFF312  10 20 40
*     TERMINALS:  D  G  S
* Harris 400 Volt  1.15 Amp  5 ohm  N-Channel Power MOSFET  08-01-1993
M1   1  2  3  3  DMOS L=1U W=1U
RD  100  1  2.37
RS  30  3  .126
RG  20  2  225
CGS  2  3  27.3P
EGD 12  0  2  1  1
VFB 14  0  0
FFB  2  1  VFB  1
CGD 13 14  34.7P
R1  13  0  1
D1  12 13  DLIM
DDG 15 14  DCGD
R2  12 15  1
D2  15  0  DLIM
DSD  3 100  DSUB
LS  30 40  15N
LD  10 100 5N
.MODEL DMOS NMOS (LEVEL=3 THETA=67.3M VMAX=633K ETA=87U VTO=3.8 KP=1.31)
.MODEL DCGD D (CJO=34.7P VJ=.6 M=.68)
.MODEL DSUB D (IS=4.77N N=1.5 RS=.739 BV=400 CJO=53P VJ=.8 M=.42 TT=380N)
.MODEL DLIM D (IS=100U)
.ENDS 
**********
*SRC=IRFF313;IRFF313;MOSFETs N;Power >100V;350V 1.15A 
*SYM=POWMOSN
.SUBCKT IRFF313  10 20 40
*     TERMINALS:  D  G  S
* Harris 350 Volt  1.15 Amp  5 ohm  N-Channel Power MOSFET  08-01-1993
M1   1  2  3  3  DMOS L=1U W=1U
RD  100  1  2.37
RS  30  3  .126
RG  20  2  225
CGS  2  3  27.3P
EGD 12  0  2  1  1
VFB 14  0  0
FFB  2  1  VFB  1
CGD 13 14  34.7P
R1  13  0  1
D1  12 13  DLIM
DDG 15 14  DCGD
R2  12 15  1
D2  15  0  DLIM
DSD  3 100  DSUB
LS  30 40  15N
LD  10 100 5N
.MODEL DMOS NMOS (LEVEL=3 THETA=67.3M VMAX=529K ETA=87U VTO=3.8 KP=1.33)
.MODEL DCGD D (CJO=34.7P VJ=.6 M=.68)
.MODEL DSUB D (IS=4.77N N=1.5 RS=.739 BV=350 CJO=53P VJ=.8 M=.42 TT=380N)
.MODEL DLIM D (IS=100U)
.ENDS 
**********
*SRC=IRFF320;IRFF320;MOSFETs N;Power >100V;400V 2.5A 
*SYM=POWMOSN
.SUBCKT IRFF320  10 20 40
*     TERMINALS:  D  G  S
* Harris 400 Volt  2.5 Amp  1.8 ohm  N-Channel Power MOSFET  08-02-1993
M1   1  2  3  3  DMOS L=1U W=1U
RD  100  1  .854
RS  30  3  46M
RG  20  2  80
CGS  2  3  336P
EGD 12  0  2  1  1
VFB 14  0  0
FFB  2  1  VFB  1
CGD 13 14  173P
R1  13  0  1
D1  12 13  DLIM
DDG 15 14  DCGD
R2  12 15  1
D2  15  0  DLIM
DSD  3 100  DSUB
LS  30 40  15N
Ld  10 100 5N
.MODEL DMOS NMOS (LEVEL=3 THETA=56.2M VMAX=833K ETA=80U VTO=3.2 KP=2.6)
.MODEL DCGD D (CJO=173P VJ=.6 M=.68)
.MODEL DSUB D (IS=10.3N N=1.5 RS=.34 BV=400 CJO=264P VJ=.8 M=.42 TT=450N)
.MODEL DLIM D (IS=100U)
.ENDS 
**********
*SRC=IRFF321;IRFF321;MOSFETs N;Power >100V;350V 2.5A 
*SYM=POWMOSN
.SUBCKT IRFF321  10 20 40
*     TERMINALS:  D  G  S
* Harris 350 Volt  2.5 Amp  1.8 ohm  N-Channel Power MOSFET  08-02-1993
M1   1  2  3  3  DMOS L=1U W=1U
RD  100  1  .854
RS  30  3  46M
RG  20  2  74
CGS  2  3  386P
EGD 12  0  2  1  1
VFB 14  0  0
FFB  2  1  VFB  1
CGD 13 14  173P
R1  13  0  1
D1  12 13  DLIM
DDG 15 14  DCGD
R2  12 15  1
D2  15  0  DLIM
DSD  3 100  DSUB
LS  30 40  15N
Ld  10 100 5N
.MODEL DMOS NMOS (LEVEL=3 THETA=56.2M VMAX=729K ETA=80U VTO=3.2 KP=2.64)
.MODEL DCGD D (CJO=173P VJ=.6 M=.68)
.MODEL DSUB D (IS=10.3N N=1.5 RS=.34 BV=350 CJO=264P VJ=.8 M=.42 TT=450N)
.MODEL DLIM D (IS=100U)
.ENDS 
**********
*SRC=IRFF322;IRFF322;MOSFETs N;Power >100V;400V 2.0A 
*SYM=POWMOSN
.SUBCKT IRFF322  10 20 40
*     TERMINALS:  D  G  S
* Harris 400 Volt  2 Amp  2.5 ohm  N-Channel Power MOSFET  08-02-1993
M1   1  2  3  3  DMOS L=1U W=1U
RD  100  1  1.18
RS  30  3  63.5M
RG  20  2  75
CGS  2  3  386P
EGD 12  0  2  1  1
VFB 14  0  0
FFB  2  1  VFB  1
CGD 13 14  173P
R1  13  0  1
D1  12 13  DLIM
DDG 15 14  DCGD
R2  12 15  1
D2  15  0  DLIM
DSD  3 100  DSUB
LS  30 40  15N
Ld  10 100 5N
.MODEL DMOS NMOS (LEVEL=3 THETA=56.2M VMAX=833K ETA=100U VTO=3.2 KP=2.75)
.MODEL DCGD D (CJO=173P VJ=.6 M=.68)
.MODEL DSUB D (IS=8.3N N=1.5 RS=.425 BV=400 CJO=264P VJ=.8 M=.42 TT=450N)
.MODEL DLIM D (IS=100U)
.ENDS 
**********
*SRC=IRFF323;IRFF323;MOSFETs N;Power >100V;350V 2.0A 
*SYM=POWMOSN
.SUBCKT IRFF323  10 20 40
*     TERMINALS:  D  G  S
* Harris 350 Volt  2 Amp  2.5 ohm  N-Channel Power MOSFET  08-02-1993
M1   1  2  3  3  DMOS L=1U W=1U
RD  100  1  1.18
RS  30  3  63.5M
RG  20  2  75
CGS  2  3  382P
EGD 12  0  2  1  1
VFB 14  0  0
FFB  2  1  VFB  1
CGD 13 14  231P
R1  13  0  1
D1  12 13  DLIM
DDG 15 14  DCGD
R2  12 15  1
D2  15  0  DLIM
DSD  3 100  DSUB
LS  30 40  15N
Ld  10 100 5N
.MODEL DMOS NMOS (LEVEL=3 THETA=56.2M VMAX=729K ETA=100U VTO=3.2 KP=2.8)
.MODEL DCGD D (CJO=231P VJ=.6 M=.68)
.MODEL DSUB D (IS=8.3N N=1.5 RS=.425 BV=350 CJO=352P VJ=.8 M=.42 TT=450N)
.MODEL DLIM D (IS=100U)
.ENDS 
**********
*SRC=IRFF330;IRFF330;MOSFETs N;Power >100V;400V 3.5A 
*SYM=POWMOSN
.SUBCKT IRFF330  10 20 40
*     TERMINALS:  D  G  S
* Harris 400 Volt  3.5 Amp  1 ohm  N-Channel Power MOSFET  08-02-1993
M1   1  2  3  3  DMOS L=1U W=1U
RD  100  1  .474
RS  30  3  26M
RG  20  2  25
CGS  2  3  570P
EGD 12  0  2  1  1
VFB 14  0  0
FFB  2  1  VFB  1
CGD 13 14  385P
R1  13  0  1
D1  12 13  DLIM
DDG 15 14  DCGD
R2  12 15  1
D2  15  0  DLIM
DSD  3 100  DSUB
LS  30 40  15N
LD  10 100 5N
.MODEL DMOS NMOS (LEVEL=3 THETA=32.9M VMAX=933K ETA=57.1U VTO=3.4 KP=4.46)
.MODEL DCGD D (CJO=385P VJ=.6 M=.68)
.MODEL DSUB D (IS=14.5N N=1.5 RS=.242 BV=400 CJO=301P VJ=.8 M=.42 TT=600N)
.MODEL DLIM D (IS=100U)
.ENDS 
**********
*SRC=IRFF331;IRFF331;MOSFETs N;Power >100V;350V 3.5A 
*SYM=POWMOSN
.SUBCKT IRFF331  10 20 40
*     TERMINALS:  D  G  S
* Harris 350 Volt  3.5 Amp  1 ohm  N-Channel Power MOSFET  08-02-1993
M1   1  2  3  3  DMOS L=1U W=1U
RD  100  1  .474
RS  30  3  26M
RG  20  2  35
CGS  2  3  580P
EGD 12  0  2  1  1
VFB 14  0  0
FFB  2  1  VFB  1
CGD 13 14  256P
R1  13  0  1
D1  12 13  DLIM
DDG 15 14  DCGD
R2  12 15  1
D2  15  0  DLIM
DSD  3 100  DSUB
LS  30 40  15N
LD  10 100 5N
.MODEL DMOS NMOS (LEVEL=3 THETA=57.9M VMAX=729K ETA=57.1U VTO=3.4 KP=4.819)
.MODEL DCGD D (CJO=256P VJ=.6 M=.68)
.MODEL DSUB D (IS=14.5N N=1.5 RS=.242 BV=350 CJO=344P VJ=.8 M=.42 TT=600N)
.MODEL DLIM D (IS=100U)
.ENDS 
**********
*SRC=IRFF332;IRFF332;MOSFETs N;Power >100V;400V 3.0A 
*SYM=POWMOSN
.SUBCKT IRFF332  10 20 40
*     TERMINALS:  D  G  S
* Harris 400 Volt  3 Amp  1.5 ohm  N-Channel Power MOSFET  08-02-1993
M1   1  2  3  3  DMOS L=1U W=1U
RD  100  1  .711
RS  30  3  38.5M
RG  20  2  40
CGS  2  3  580P
EGD 12  0  2  1  1
VFB 14  0  0
FFB  2  1  VFB  1
CGD 13 14  256P
R1  13  0  1
D1  12 13  DLIM
DDG 15 14  DCGD
R2  12 15  1
D2  15  0  DLIM
DSD  3 100  DSUB
LS  30 40  15N
LD  10 100 5N
.MODEL DMOS NMOS (LEVEL=3 THETA=52.9M VMAX=833K ETA=66.7U VTO=3.4 KP=5.13)
.MODEL DCGD D (CJO=256P VJ=.6 M=.68)
.MODEL DSUB D (IS=12.4N N=1.5 RS=.283 BV=400 CJO=344P VJ=.8 M=.42 TT=600N)
.MODEL DLIM D (IS=100U)
.ENDS 
**********
*SRC=IRFF333;IRFF333;MOSFETs N;Power >100V;250V 3.0A 
*SYM=POWMOSN
.SUBCKT IRFF333  10 20 40
*     TERMINALS:  D  G  S
* Harris 350 Volt  3 Amp  1.5 ohm  N-Channel Power MOSFET  08-02-1993
M1   1  2  3  3  DMOS L=1U W=1U
RD  100  1  .711
RS  30  3  38.5M
RG  20  2  50
CGS  2  3  580P
EGD 12  0  2  1  1
VFB 14  0  0
FFB  2  1  VFB  1
CGD 13 14  256P
R1  13  0  1
D1  12 13  DLIM
DDG 15 14  DCGD
R2  12 15  1
D2  15  0  DLIM
DSD  3 100  DSUB
LS  30 40  15N
LD  10 100 5N
.MODEL DMOS NMOS (LEVEL=3 THETA=52.9M VMAX=729K ETA=66.7U VTO=3.4 KP=5.14)
.MODEL DCGD D (CJO=256P VJ=.6 M=.68)
.MODEL DSUB D (IS=12.4N N=1.5 RS=.283 BV=350 CJO=344P VJ=.8 M=.42 TT=600N)
.MODEL DLIM D (IS=100U)
.ENDS 
**********
*SRC=IRFF420;IRFF420;MOSFETs N;Power >100V;500V 1.6A 
*SYM=POWMOSN
.SUBCKT IRFF420  10 20 40
*     TERMINALS:  D  G  S
* Harris 500 Volt  1.6 Amp  3 ohm  N-Channel Power MOSFET  08-02-1993
M1   1  2  3  3  DMOS L=1U W=1U
RD  100  1  1.42
RS  30  3  76M
RG  20  2  67
CGS  2  3  195P
EGD 12  0  2  1  1
VFB 14  0  0
FFB  2  1  VFB  1
CGD 13 14  190P
R1  13  0  1
D1  12 13  DLIM
DDG 15 14  DCGD
R2  12 15  1
D2  15  0  DLIM
DSD  3 100  DSUB
LS  30 40  15N
LD  10 100 5N
.MODEL DMOS NMOS (LEVEL=3 THETA=14.5M VMAX=1.34MEG ETA=250U VTO=3.8 KP=1.8)
.MODEL DCGD D (CJO=190P VJ=.6 M=.68)
.MODEL DSUB D (IS=6.64N N=1.5 RS=.406 BV=500 CJO=195P VJ=.8 M=.42 TT=600N)
.MODEL DLIM D (IS=100U)
.ENDS 
**********
*SRC=IRFF421;IRFF421;MOSFETs N;Power >100V;450V 1.6A 
*SYM=POWMOSN
.SUBCKT IRFF421  10 20 40
*     TERMINALS:  D  G  S
* Harris 450 Volt  1.6 Amp  3 ohm  N-Channel Power MOSFET  08-02-1993
M1   1  2  3  3  DMOS L=1U W=1U
RD  100  1  1.42
RS  30  3  76M
RG  20  2  93.7
CGS  2  3  138P
EGD 12  0  2  1  1
VFB 14  0  0
FFB  2  1  VFB  1
CGD 13 14  150P
R1  13  0  1
D1  12 13  DLIM
DDG 15 14  DCGD
R2  12 15  1
D2  15  0  DLIM
DSD  3 100  DSUB
LS  30 40  15N
LD  10 100 5N
.MODEL DMOS NMOS (LEVEL=3 THETA=47.3M VMAX=937K ETA=250U VTO=3.8 KP=2)
.MODEL DCGD D (CJO=150P VJ=.6 M=.68)
.MODEL DSUB D (IS=6.64N N=1.5 RS=.531 BV=450 CJO=229P VJ=.8 M=.42 TT=600N)
.MODEL DLIM D (IS=100U)
.ENDS 
**********
*SRC=IRFF422;IRFF422;MOSFETs N;Power >100V;500V 1.4A 
*SYM=POWMOSN
.SUBCKT IRFF422  10 20 40
*     TERMINALS:  D  G  S
* Harris 500 Volt  1.4 Amp  4 ohm  N-Channel Power MOSFET  08-02-1993
M1   1  2  3  3  DMOS L=1U W=1U
RD  100  1  1.89
RS  30  3  .101
RG  20  2  80
CGS  2  3  190P
EGD 12  0  2  1  1
VFB 14  0  0
FFB  2  1  VFB  1
CGD 13 14  128P
R1  13  0  1
D1  12 13  DLIM
DDG 15 14  DCGD
R2  12 15  1
D2  15  0  DLIM
DSD  3 100  DSUB
LS  30 40  15N
LD  10 100 5N
.MODEL DMOS NMOS (LEVEL=3 THETA=37.3M VMAX=1.14MEG ETA=357U VTO=3.8 KP=2.07)
.MODEL DCGD D (CJO=128P VJ=.6 M=.68)
.MODEL DSUB D (IS=5.81N N=1.5 RS=.607 BV=500 CJO=236P VJ=.8 M=.42 TT=600N)
.MODEL DLIM D (IS=100U)
.ENDS 
**********
*SRC=IRFF423;IRFF423;MOSFETs N;Power >100V;450V 1.4A 
*SYM=POWMOSN
.SUBCKT IRFF423  10 20 40
*     TERMINALS:  D  G  S
* Harris 450 Volt  1.4 Amp  4 ohm  N-Channel Power MOSFET  08-02-1993
M1   1  2  3  3  DMOS L=1U W=1U
RD  100  1  1.89
RS  30  3  .101
RG  20  2  107
CGS  2  3  90P
EGD 12  0  2  1  1
VFB 14  0  0
FFB  2  1  VFB  1
CGD 13 14  128P
R1  13  0  1
D1  12 13  DLIM
DDG 15 14  DCGD
R2  12 15  1
D2  15  0  DLIM
DSD  3 100  DSUB
LS  30 40  15N
LD  10 100 5N
.MODEL DMOS NMOS (LEVEL=3 THETA=47.3M VMAX=937K ETA=285U VTO=3.8 KP=2.23)
.MODEL DCGD D (CJO=128P VJ=.6 M=.68)
.MODEL DSUB D (IS=5.81N N=1.5 RS=.607 BV=450 CJO=172P VJ=.8 M=.42 TT=600N)
.MODEL DLIM D (IS=100U)
.ENDS 
**********
*SRC=IRFF430;IRFF430;MOSFETs N;Power >100V;500V 2.75A 
*SYM=POWMOSN
.SUBCKT IRFF430  10 20 40
*     TERMINALS:  D  G  S
* Harris 500 Volt  2.75 Amp  1.5 ohm  N-Channel Power MOSFET  08-02-1993
M1   1  2  3  3  DMOS L=1U W=1U
RD  100  1  .711
RS  30  3  38.5M
RG  20  2  50
CGS  2  3  265P
EGD 12  0  2  1  1
VFB 14  0  0
FFB  2  1  VFB  1
CGD 13 14  182P
R1  13  0  1
D1  12 13  DLIM
DDG 15 14  DCGD
R2  12 15  1
D2  15  0  DLIM
DSD  3 100  DSUB
LS  30 40  15N
LD  10 100 5N
.MODEL DMOS NMOS (LEVEL=3 THETA=26.2M VMAX=1.54MEG ETA=181U VTO=3.3 KP=3.06)
.MODEL DCGD D (CJO=182P VJ=.6 M=.68)
.MODEL DSUB D (IS=11.4N N=1.5 RS=.236 BV=500 CJO=238P VJ=.8 M=.42 TT=800N)
.MODEL DLIM D (IS=100U)
.ENDS 
**********
*SRC=IRFF431;IRFF431;MOSFETs N;Power >100V;450V 2.75A 
*SYM=POWMOSN
.SUBCKT IRFF431  10 20 40
*     TERMINALS:  D  G  S
* Harris 450 Volt  2.75 Amp  1.5 ohm  N-Channel Power MOSFET  08-02-1993
M1   1  2  3  3  DMOS L=1U W=1U
RD  100  1  .711
RS  30  3  38.5M
RG  20  2  50
CGS  2  3  286P
EGD 12  0  2  1  1
VFB 14  0  0
FFB  2  1  VFB  1
CGD 13 14  173P
R1  13  0  1
D1  12 13  DLIM
DDG 15 14  DCGD
R2  12 15  1
D2  15  0  DLIM
DSD  3 100  DSUB
LS  30 40  15N
LD  10 100 5N
.MODEL DMOS NMOS (LEVEL=3 THETA=32.9M VMAX=937K ETA=181U VTO=3.3 KP=3.5)
.MODEL DCGD D (CJO=173P VJ=.6 M=.68)
.MODEL DSUB D (IS=11.4N N=1.5 RS=.236 BV=450 CJO=264P VJ=.8 M=.42 TT=800N)
.MODEL DLIM D (IS=100U)
.ENDS 
**********
*SRC=IRFF432;IRFF432;MOSFETs N;Power >100V;500V 2.25A 
*SYM=POWMOSN
.SUBCKT IRFF432  10 20 40
*     TERMINALS:  D  G  S
* Harris 500 Volt  2.25 Amp  2 ohm  N-Channel Power MOSFET  08-02-1993
M1   1  2  3  3  DMOS L=1U W=1U
RD  100  1  .949
RS  30  3  51M
RG  20  2  44
CGS  2  3  236P
EGD 12  0  2  1  1
VFB 14  0  0
FFB  2  1  VFB  1
CGD 13 14  173P
R1  13  0  1
D1  12 13  DLIM
DDG 15 14  DCGD
R2  12 15  1
D2  15  0  DLIM
DSD  3 100  DSUB
LS  30 40  15N
LD  10 100 5N
.MODEL DMOS NMOS (LEVEL=3 THETA=34.5M VMAX=1.04MEG ETA=222U VTO=3.3 KP=3.84)
.MODEL DCGD D (CJO=173P VJ=.6 M=.68)
.MODEL DSUB D (IS=9.34N N=1.5 RS=.289 BV=500 CJO=214P VJ=.8 M=.42 TT=800N)
.MODEL DLIM D (IS=100U)
.ENDS 
**********
*SRC=IRFF433;IRFF433;MOSFETs N;Power >100V;450V 2.25A 
*SYM=POWMOSN
.SUBCKT IRFF433  10 20 40
*     TERMINALS:  D  G  S
* Harris 450 Volt  2.25 Amp  2 ohm  N-Channel Power MOSFET  08-02-1993
M1   1  2  3  3  DMOS L=1U W=1U
RD  100  1  .949
RS  30  3  51M
RG  20  2  44
CGS  2  3  285P
EGD 12  0  2  1  1
VFB 14  0  0
FFB  2  1  VFB  1
CGD 13 14  192P
R1  13  0  1
D1  12 13  DLIM
DDG 15 14  DCGD
R2  12 15  1
D2  15  0  DLIM
DSD  3 100  DSUB
LS  30 40  15N
LD  10 100 5N
.MODEL DMOS NMOS (LEVEL=3 THETA=14.5M VMAX=1.393MEG ETA=222U VTO=3.3 KP=3.36)
.MODEL DCGD D (CJO=192P VJ=.6 M=.68)
.MODEL DSUB D (IS=9.34N N=1.5 RS=.255 BV=450 CJO=258P VJ=.8 M=.42 TT=800N)
.MODEL DLIM D (IS=100U)
.ENDS 
**********
*SRC=IRFP150;IRFP150;MOSFETs N;Power <=100V;100V 40A 
*SYM=POWMOSN
.SUBCKT IRFP150  10 20 40
*     TERMINALS:  D  G  S
* Harris 100 Volt  40 Amp  55M ohm  N-Channel Power MOSFET  08-10-1993
M1   1  2  3  3  DMOS L=1U W=1U
RD  100  1  25.1M
RS  30  3  2.37M
RG  20  2  6.75
CGS  2  3  1.15N
EGD 12  0  2  1  1
VFB 14  0  0
FFB  2  1  VFB  1
CGD 13 14  1.56N
R1  13  0  1
D1  12 13  DLIM
DDG 15 14  DCGD
R2  12 15  1
D2  15  0  DLIM
DSD  3 100  DSUB
LS  30 40  12.5N
LD  10 100 5N
.MODEL DMOS NMOS (LEVEL=3 THETA=68M VMAX=208K ETA=200U VTO=3.6 KP=21.5)
.MODEL DCGD D (CJO=1.56N VJ=.6 M=.68)
.MODEL DSUB D (IS=166N N=1.5 RS=31.2M BV=100 CJO=2.23N VJ=.8 M=.42 TT=426N)
.MODEL DLIM D (IS=100U)
.ENDS 
**********
*SRC=IRFP151;IRFP151;MOSFETs N;Power <=100V;60V 40A 
*SYM=POWMOSN
.SUBCKT IRFP151  10 20 40
*     TERMINALS:  D  G  S
* Harris 60 Volt  40 Amp  55M ohm  N-Channel Power MOSFET  08-10-1993
M1   1  2  3  3  DMOS L=1U W=1U
RD  100  1  25.1M
RS  30  3  2.37M
RG  20  2  14
CGS  2  3  750P
EGD 12  0  2  1  1
VFB 14  0  0
FFB  2  1  VFB  1
CGD 13 14  1.17N
R1  13  0  1
D1  12 13  DLIM
DDG 15 14  DCGD
R2  12 15  1
D2  15  0  DLIM
DSD  3 100  DSUB
LS  30 40  12.5N
LD  10 100 5N
.MODEL DMOS NMOS (LEVEL=3 THETA=45M VMAX=180K ETA=200U VTO=3.6 KP=21.9)
.MODEL DCGD D (CJO=1.17N VJ=.6 M=.68)
.MODEL DSUB D (IS=166N N=1.5 RS=31.2M BV=60 CJO=1.54N VJ=.8 M=.42 TT=426N)
.MODEL DLIM D (IS=100U)
.ENDS 
**********
*SRC=IRFP152;IRFP152;MOSFETs N;Power <=100V;100V 34A 
*SYM=POWMOSN
.SUBCKT IRFP152  10 20 40
*     TERMINALS:  D  G  S
* Harris 100 Volt  34 Amp  80M ohm  N-Channel Power MOSFET  08-10-1993
M1   1  2  3  3  DMOS L=1U W=1U
RD  100  1  37M
RS  30  3  3M
RG  20  2  10
CGS  2  3  701P
EGD 12  0  2  1  1
VFB 14  0  0
FFB  2  1  VFB  1
CGD 13 14  1.08N
R1  13  0  1
D1  12 13  DLIM
DDG 15 14  DCGD
R2  12 15  1
D2  15  0  DLIM
DSD  3 100  DSUB
LS  30 40  12.5N
LD  10 100 5N
.MODEL DMOS NMOS (LEVEL=3 THETA=50M VMAX=208K ETA=185U VTO=3.6 KP=21.1)
.MODEL DCGD D (CJO=1.08N VJ=.6 M=.68)
.MODEL DSUB D (IS=141N N=1.5 RS=36.7M BV=100 CJO=1.54N VJ=.8 M=.42 TT=406N)
.MODEL DLIM D (IS=100U)
.ENDS 
**********
*SRC=IRFP153;IRFP153;MOSFETs N;Power <=100V;60V 34A 
*SYM=POWMOSN
.SUBCKT IRFP153  10 20 40
*     TERMINALS:  D  G  S
* Harris 60 Volt  34 Amp  80M ohm  N-Channel Power MOSFET  08-10-1993
M1   1  2  3  3  DMOS L=1U W=1U
RD  100  1  37M
RS  30  3  3M
RG  20  2  15
CGS  2  3  691P
EGD 12  0  2  1  1
VFB 14  0  0
FFB  2  1  VFB  1
CGD 13 14  1.08N
R1  13  0  1
D1  12 13  DLIM
DDG 15 14  DCGD
R2  12 15  1
D2  15  0  DLIM
DSD  3 100  DSUB
LS  30 40  12.5N
LD  10 100 5N
.MODEL DMOS NMOS (LEVEL=3 THETA=40M VMAX=225K ETA=180U VTO=3.6 KP=20)
.MODEL DCGD D (CJO=1.08N VJ=.6 M=.68)
.MODEL DSUB D (IS=141N N=1.5 RS=36.7M BV=60 CJO=1.64N VJ=.8 M=.42 TT=406N)
.MODEL DLIM D (IS=100U)
.ENDS 
**********
*SRC=IRFP240;IRFP240;MOSFETs N;Power >100V;200V 20A 0.18ohm
*SYM=POWMOSN
.SUBCKT IRFP240  10 20 40
*     TERMINALS:  D  G  S
*  200 Volt  20 Amp  .18 ohm  N-Channel Power MOSFET  11-22-1995
M1   1  2  3  3  DMOS L=1U W=1U
RD  10  1  84.5M
RS  30  3  5.5M
RG  20  2  7.5
CGS  2  3  1.17N
EGD 12  0  2  1  1
VFB 14  0  0
FFB  2  1  VFB  1
CGD 13 14  1.66N
R1  13  0  1
D1  12 13  DLIM
DDG 15 14  DCGD
R2  12 15  1
D2  15  0  DLIM
DSD  3 10  DSUB
LS  30 40  13N
.MODEL DMOS NMOS (LEVEL=3 THETA=60M VMAX=416K ETA=2M VTO=3 KP=3.83)
.MODEL DCGD D (CJO=1.66N VJ=.6 M=.68)
.MODEL DSUB D (IS=83N N=1.5 RS=14M BV=200 CJO=1.16N VJ=.8 M=.42 TT=300N)
.MODEL DLIM D (IS=100U)
.ENDS
**********
*SRC=TN0102N2;TN0102N2;MOSFETs N;Power <=100V;20V 1.25A 
*SYM=POWMOSN
.SUBCKT TN0102N2 10 20 40
*     TERMINALS:  D  G  S
* Supertex 20 Volt  1.25 Amp  1.8 ohm  N-Channel Power MOSFET  07-29-1993
M1   1  2  3  3  DMOS L=1U W=1U
RD  100  1  1.1854
RS  30  3  .68
RG  20  2  80
CGS  2  3  28P
EGD 12  0  2  1  1
VFB 14  0  0
FFB  2  1  VFB  1
CGD 13 14  15.6P
R1  13  0  1
D1  12 13  DLIM
DDG 15 14  DCGD
R2  12 15  1
D2  15  0  DLIM
DSD  3 100  DSUB
LS  30 40  15N
LD  10 100 5N
.MODEL DMOS NMOS (LEVEL=3 THETA=280M VMAX=65.6K ETA=2M VTO=1.1 KP=.806)
.MODEL DCGD D (CJO=15.6P VJ=.6 M=.68)
.MODEL DSUB D (IS=5.19N N=1.5 RS=.44 BV=20 CJO=47.4P VJ=.8 M=.42 TT=300N)
.MODEL DLIM D (IS=100U)
.ENDS 
**********
*SRC=TN0104N2;TN0104N2;MOSFETs N;Power <=100V;40V 1.25A 
*SYM=POWMOSN
.SUBCKT TN0104N2 10 20 40
*     TERMINALS:  D  G  S
* Supertex 40 Volt  1.25 Amp  1.8 ohm  N-Channel Power MOSFET  07-29-1993
M1   1  2  3  3  DMOS L=1U W=1U
RD  100  1  .854
RS  30  3  .8
RG  20  2  75
CGS  2  3  38P
EGD 12  0  2  1  1
VFB 14  0  0
FFB  2  1  VFB  1
CGD 13 14  15.6P
R1  13  0  1
D1  12 13  DLIM
DDG 15 14  DCGD
R2  12 15  1
D2  15  0  DLIM
DSD  3 100  DSUB
LS  30 40  15N
LD  10 100 5N
.MODEL DMOS NMOS (LEVEL=3 THETA=80M VMAX=73.3K ETA=2M VTO=1.1 KP=.666)
.MODEL DCGD D (CJO=15.6P VJ=.6 M=.68)
.MODEL DSUB D (IS=5.19N N=1.5 RS=.36 BV=40 CJO=57.4P VJ=.8 M=.42 TT=300N)
.MODEL DLIM D (IS=100U)
.ENDS 
**********
*SRC=TN0102N3;TN0102N3;MOSFETs N;Power <=100V;20V 0.8A 
*SYM=POWMOSN
.SUBCKT TN0102N3 10 20 40
*     TERMINALS:  D  G  S
* Supertex 20 Volt  .8 Amp  1.8 ohm  N-Channel Power MOSFET  07-29-1993
M1   1  2  3  3  DMOS L=1U W=1U
RD  100  1  .854
RS  30  3  .8
RG  20  2  78
CGS  2  3  38P
EGD 12  0  2  1  1
VFB 14  0  0
FFB  2  1  VFB  1
CGD 13 14  15.6P
R1  13  0  1
D1  12 13  DLIM
DDG 15 14  DCGD
R2  12 15  1
D2  15  0  DLIM
DSD  3 100  DSUB
LS  30 40  7.5N
LD  10 100 4N
.MODEL DMOS NMOS (LEVEL=3 THETA=80M VMAX=54.6K ETA=2M VTO=1.1 KP=.85)
.MODEL DCGD D (CJO=15.6P VJ=.6 M=.68)
.MODEL DSUB D (IS=3.32N N=1.5 RS=.562 BV=20 CJO=57.4P VJ=.8 M=.42 TT=300N)
.MODEL DLIM D (IS=100U)
.ENDS 
**********
*SRC=TN0104N3;TN0104N3;MOSFETs N;Power <=100V;40V 0.8A 
*SYM=POWMOSN
.SUBCKT TN0104N3 10 20 40
*     TERMINALS:  D  G  S
* Supertex 40 Volt  .8 Amp  1.8 ohm  N-Channel Power MOSFET  07-29-1993
M1   1  2  3  3  DMOS L=1U W=1U
RD  100  1  .854
RS  30  3  46M
RG  20  2  78
CGS  2  3  38P
EGD 12  0  2  1  1
VFB 14  0  0
FFB  2  1  VFB  1
CGD 13 14  15.6P
R1  13  0  1
D1  12 13  DLIM
DDG 15 14  DCGD
R2  12 15  1
D2  15  0  DLIM
DSD  3 100  DSUB
LS  30 40  7.5N
LD  10 100 4N
.MODEL DMOS NMOS (LEVEL=3 THETA=80M VMAX=68.3K ETA=2M VTO=1.1 KP=.56)
.MODEL DCGD D (CJO=15.6P VJ=.6 M=.68)
.MODEL DSUB D (IS=3.32N N=1.5 RS=.562 BV=40 CJO=57.4P VJ=.8 M=.42 TT=300N)
.MODEL DLIM D (IS=100U)
.ENDS 
**********
*SRC=TN0104N8;TN0104N8;MOSFETs N;Power <=100V;40V 0.42A 
*SYM=POWMOSN
.SUBCKT TN0104N8 10 20 40
*     TERMINALS:  D  G  S
* Supertex 40 Volt  .42 Amp  2 ohm  N-Channel Power MOSFET  07-29-1993
M1   1  2  3  3  DMOS L=1U W=1U
RD  10  1  .949
RS  30  3  51M
RG  20  2  77
CGS  2  3  25.7P
EGD 12  0  2  1  1
VFB 14  0  0
FFB  2  1  VFB  1
CGD 13 14  19P
R1  13  0  1
D1  12 13  DLIM
DDG 15 14  DCGD
R2  12 15  1
D2  15  0  DLIM
DSD  3 10  DSUB
LS  30 40  5N
.MODEL DMOS NMOS (LEVEL=3 THETA=80M VMAX=63.3K ETA=2M VTO=1.1 KP=.58)
.MODEL DCGD D (CJO=19P VJ=.6 M=.68)
.MODEL DSUB D (IS=1.74N N=1.5 RS=.881 BV=40 CJO=56.5P VJ=.8 M=.42 TT=300N)
.MODEL DLIM D (IS=100U)
.ENDS 
**********
*SRC=2SK1058;MSK1058;MOSFETs N;Power >100V;160V 7A 
*SYM=POWMOSN
.SUBCKT MSK1058  10 20 40
*     TERMINALS:  D  G  S
* Hitachi  160 Volt  7 Amp  .171 ohm  N-Channel Power MOSFET  08-06-1993
M1   1  2  3  3  DMOS L=1U W=1U
RD  100  1  80.4M
RS  30  3  5.28M
RG  20  2  21.4
CGS  2  3  410P
EGD 12  0  2  1  1
VFB 14  0  0
FFB  2  1  VFB  1
CGD 13 14  128P
R1  13  0  1
D1  12 13  DLIM
DDG 15 14  DCGD
R2  12 15  1
D2  15  0  DLIM
DSD  3 100  DSUB
LS  30 40  7.5N
LD  10 100 4N
.MODEL DMOS NMOS (LEVEL=3 THETA=85M VMAX=163K ETA=2.2M VTO=.2 KP=.999)
.MODEL DCGD D (CJO=128P VJ=.6 M=.68)
.MODEL DSUB D (IS=29N N=1.5 RS=61.4M BV=160 CJO=802P VJ=.8 M=.42 TT=252N)
.MODEL DLIM D (IS=100U)
.ENDS 
**********
*SRC=2SK135;MSK135;MOSFETs N;Power >100V;160V 7A 
*SYM=POWMOSN
.SUBCKT MSK135   10 20 40
*     TERMINALS:  D  G  S
* Hitachi  160 Volt  7 Amp  .171 ohm  N-Channel Power MOSFET  08-07-1993
M1   1  2  3  3  DMOS L=1U W=1U
RD  100  1  80.4M
RS  30  3  5.28M
RG  20  2  21.4
CGS  2  3  590P
EGD 12  0  2  1  1
VFB 14  0  0
FFB  2  1  VFB  1
CGD 13 14  128P
R1  13  0  1
D1  12 13  DLIM
DDG 15 14  DCGD
R2  12 15  1
D2  15  0  DLIM
DSD  3 100  DSUB
LS  30 40  12.5N
LD  10 100 5N
.MODEL DMOS NMOS (LEVEL=3 THETA=80M VMAX=233K ETA=2M VTO=.25 KP=.817)
.MODEL DCGD D (CJO=128P VJ=.6 M=.68)
.MODEL DSUB D (IS=29N N=1.5 RS=61.4M BV=160 CJO=1.46N VJ=.8 M=.42 TT=252N)
.MODEL DLIM D (IS=100U)
.ENDS 
**********
*SRC=2SJ50;MSJ50;MOSFETs P;Power >100V;160V 7A 
*SYM=POWMOSP
.SUBCKT MSJ50    10 20 40
*     TERMINALS:  D  G  S
* Hitachi  160 Volt  7 Amp  .171 ohm  P-Channel Power MOSFET  08-07-1993
M1   1  2  3  3  DMOS L=1U W=1U
RD  10  1  80.4M
RS  30  3  5.28M
RG  20  2  15.4
CGS  2  3  860P
EGD 12  0  1  2  1
VFB 14  0  0
FFB  1  2  VFB  1
CGD 13 14  513P
R1  13  0  1
D1  12 13  DLIM
DDG 15 14  DCGD
R2  12 15  1
D2  15  0  DLIM
DSD 10  3  DSUB
LS  30 40  7.5N
.MODEL DMOS PMOS (LEVEL=3 THETA=60M VMAX=533K ETA=5.5M VTO=-.34 KP=.599)
.MODEL DCGD D (CJO=513P VJ=.6 M=.68)
.MODEL DSUB D (IS=29N N=1.5 RS=61.4M BV=160 CJO=1.12N VJ=.8 M=.42 TT=252N)
.MODEL DLIM D (IS=100U)
.ENDS 
**********
*SRC=2SJ162;MSJ162;MOSFETs P;Power >100V;160V 7A 
*SYM=POWMOSP
.SUBCKT MSJ162   10 20 40
*     TERMINALS:  D  G  S
* Hitachi 160 Volt  7 Amp  .171 ohm  P-Channel Power MOSFET  08-06-1993
M1   1  2  3  3  DMOS L=1U W=1U
RD  100  1  110.4M
RS  30  3  25.28M
RG  20  2  17.4
CGS  2  3  760P
EGD 12  0  1  2  1
VFB 14  0  0
FFB  1  2  VFB  1
CGD 13 14  467P
R1  13  0  1
D1  12 13  DLIM
DDG 15 14  DCGD
R2  12 15  1
D2  15  0  DLIM
DSD 100  3  DSUB
LS  30 40  7.5N
LD  10 100  4N
.MODEL DMOS PMOS (LEVEL=3 THETA=90M VMAX=183K ETA=6.5M VTO=-.2 KP=1.109)
.MODEL DCGD D (CJO=467P VJ=.6 M=.68)
.MODEL DSUB D (IS=29N N=1.5 RS=61.4M BV=160 CJO=900P VJ=.8 M=.42 TT=252N)
.MODEL DLIM D (IS=100U)
.ENDS 
**********
*SRC=MTB15N06E;MB15N06E;MOSFETs N;Power <=100V;60V 15A 
*SYM=POWMOSN
.SUBCKT MB15N06E 10 20 40
*     TERMINALS:  D  G  S
* Motorola 60 Volt  15 Amp  .12 ohm  N-Channel Power MOSFET  06-28-1993
M1   1  2  3  3  DMOS L=1U W=1U
RD  100  1  56M
RS  30  3  4M
RG  20  2  40.8
CGS  2  3  440P
EGD 12  0  2  1  1
VFB 14  0  0
FFB  2  1  VFB  1
CGD 13 14  770P
R1  13  0  1
D1  12 13  DLIM
DDG 15 14  DCGD
R2  12 15  1
D2  15  0  DLIM
DSD  3 100  DSUB
LS  30 40  7.5N
LD  10 100 3.5N
.MODEL DMOS NMOS (LEVEL=3 THETA=47.3M VMAX=125K ETA=2M VTO=3.6 KP=8.2)
.MODEL DCGD D (CJO=770P VJ=.6 M=.68)