**********
*SRC=SPX50A;SPX50A;Sensors;Pressure;Absolute 50kPa
*SYM=DUCERA
*HELP issyntax.hlp "Pressure Sensor Models"
.SUBCKT SPX50A  4  6  2  1  5 {SENS=8.2M TD=1M VOS=20M RIN=500 ROUT=1600}
*con           P1 Vs V+ V- Gnd
R7 6 3 {RIN}
R8 8 5 {RIN}
R9 6 10 {RIN}
R10 11 5 {RIN}
B3 10 11 V = {SENS} * (V(13) - V(14)) + {VOS}
B4 8 3 V = {SENS} * (V(13) - V(14)) + {VOS}
R11 1 3 {(ROUT-RIN)/2}
R12 2 10 {(ROUT-RIN)/2}
R13 4 9 1E4
C1 9 5 {TD/(2.3*1E4)}
E1 5 13 9 5 -1
R14 7 12 1E4
C2 12 5 {TD/(2.3*1E4)}
E2 5 14 12 5 -1
VA 7 0 DC 0.0005 ; 0.00034 kPa chanber
.ENDS
**********
*SRC=SPX100A;SPX100A;Sensors;Pressure;Absolute 100kPa
*SYM=DUCERA
*HELP issyntax.hlp "Pressure Sensor Models"
.SUBCKT SPX100A  4  6  2  1  5 {SENS=4.2M TD=1M VOS=10M RIN=500 ROUT=1600}
*con            P1 Vs V+ V- Gnd
R7 6 3 {RIN}
R8 8 5 {RIN}
R9 6 10 {RIN}
R10 11 5 {RIN}
B3 10 11 V = {SENS} * (V(13) - V(14)) + {VOS}
B4 8 3 V = {SENS} * (V(13) - V(14)) + {VOS}
R11 1 3 {(ROUT-RIN)/2}
R12 2 10 {(ROUT-RIN)/2}
R13 4 9 1E4
C1 9 5 {TD/(2.3*1E4)}
E1 5 13 9 5 -1
R14 7 12 1E4
VA 7 0 0.0005
C2 12 5 {TD/(2.3*1E4)}
E2 5 14 12 5 -1
VA 7 0 DC 0.0005 ; 0.00034 kPa chanber
.ENDS
**********
*SRC=SPX200A;SPX200A;Sensors;Pressure;Absolute 200kPa
*SYM=DUCERA
*HELP issyntax.hlp "Pressure Sensor Models"
.SUBCKT SPX200A  4  6  2  1  5 {SENS=2.1M TD=1M VOS=10M RIN=500 ROUT=1600}
*con            P1 Vs V+ V- Gnd
R7 6 3 {RIN}
R8 8 5 {RIN}
R9 6 10 {RIN}
R10 11 5 {RIN}
B3 10 11 V = {SENS} * (V(13) - V(14)) + {VOS}
B4 8 3 V = {SENS} * (V(13) - V(14)) + {VOS}
R11 1 3 {(ROUT-RIN)/2}
R12 2 10 {(ROUT-RIN)/2}
R13 4 9 1E4
C1 9 5 {TD/(2.3*1E4)}
E1 5 13 9 5 -1
R14 7 12 1E4
C2 12 5 {TD/(2.3*1E4)}
E2 5 14 12 5 -1
VA 7 0 DC 0.0005 ; 0.00034 kPa chanber
.ENDS
**********
*SRC=SPX50D;SPX50D;Sensors;Pressure;Differential 50kPa
*SYM=DUCERG
*HELP issyntax.hlp "Pressure Sensor Models"
.SUBCKT SPX50D  4  6  2  1  5   7 {SENS=8.2M TD=1M VOS=20M RIN=500 ROUT=1600}
*con           P1 Vs V+ V- Gnd P2
R7 6 3 {RIN}
R8 8 5 {RIN}
R9 6 10 {RIN}
R10 11 5 {RIN}
B3 10 11 V = {SENS} * (V(13) - V(14)) + {VOS}
B4 8 3 V = {SENS} * (V(13) - V(14)) + {VOS}
R11 1 3 {(ROUT-RIN)/2}
R12 2 10 {(ROUT-RIN)/2}
R13 4 9 1E4
C1 9 5 {TD/(2.3*1E4)}
E1 5 13 9 5 -1
R14 7 12 1E4
C2 12 5 {TD/(2.3*1E4)}
E2 5 14 12 5 -1
.ENDS
**********
*SRC=SPX100D;SPX100D;Sensors;Pressure;Differential 100kPa
*SYM=DUCERG
*HELP issyntax.hlp "Pressure Sensor Models"
.SUBCKT SPX100D  4  6  2  1  5   7 {SENS=4.2M TD=1M VOS=10M RIN=500 ROUT=1600}
*con            P1 Vs V+ V- Gnd P2
R7 6 3 {RIN}
R8 8 5 {RIN}
R9 6 10 {RIN}
R10 11 5 {RIN}
B3 10 11 V = {SENS} * (V(13) - V(14)) + {VOS}
B4 8 3 V = {SENS} * (V(13) - V(14)) + {VOS}
R11 1 3 {(ROUT-RIN)/2}
R12 2 10 {(ROUT-RIN)/2}
R13 4 9 1E4
C1 9 5 {TD/(2.3*1E4)}
E1 5 13 9 5 -1
R14 7 12 1E4
C2 12 5 {TD/(2.3*1E4)}
E2 5 14 12 5 -1
.ENDS
**********
*SRC=SPX200D;SPX200D;Sensors;Pressure;Differential 200kPa
*SYM=DUCERG
*HELP issyntax.hlp "Pressure Sensor Models"
.SUBCKT SPX200D  4  6  2  1  5   7 {SENS=2.1M TD=1M VOS=10M RIN=500 ROUT=1600}
*con            P1 Vs V+ V- Gnd P2
R7 6 3 {RIN}
R8 8 5 {RIN}
R9 6 10 {RIN}
R10 11 5 {RIN}
B3 10 11 V = {SENS} * (V(13) - V(14)) + {VOS}
B4 8 3 V = {SENS} * (V(13) - V(14)) + {VOS}
R11 1 3 {(ROUT-RIN)/2}
R12 2 10 {(ROUT-RIN)/2}
R13 4 9 1E4
C1 9 5 {TD/(2.3*1E4)}
E1 5 13 9 5 -1
R14 7 12 1E4
C2 12 5 {TD/(2.3*1E4)}
E2 5 14 12 5 -1
.ENDS
**********
*SRC=SCC05A;SCC05A;Sensors;Pressure;Absolute 5 psia
*SYM=DUCERA
*HELP issyntax.hlp "Pressure Sensor Models"
.SUBCKT SCC05A  4  6  2  1  5 {SENS=1.8M TD=0.1M VOS=-10M RIN=5K ROUT=5K}
*con            P1 Vs V+ V- Gnd
R1 6 1 {RIN}
R2 3 5 {RIN}
R3 6 2 {RIN}
R4 8 5 {RIN}
B1 2 8 V = {SENS} * (V(10) - V(12)) * (V(6) - V(5)) + {VOS}
B2 3 1 V = {SENS} * (V(10) - V(12)) * (V(6) - V(5)) + {VOS}
R7 4 9 1E4
C1 9 5 {TD/(2.3*1E4)}
E1 5 10 9 5 -1
R8 7 11 1E4
C2 11 5 {TD/(2.3*1E4)}
E2 5 12 11 5 -1
VA 7 0 DC 0.0005 ; 0.0005 psia chanber
.ENDS
**********
*SRC=SCC05D;SCC05D;Sensors;Pressure;Differential 5 psid(g)
*SYM=DUCERG
*HELP issyntax.hlp "Pressure Sensor Models"
.SUBCKT SCC05D  4  6  2  1  5   7 {SENS=1.8M TD=0.1M VOS=-10M RIN=5K ROUT=5K}
*con            P1 Vs V+ V- Gnd P2
R1 6 1 {RIN}
R2 3 5 {RIN}
R3 6 2 {RIN}
R4 8 5 {RIN}
B1 2 8 V = {SENS} * (V(10) - V(12)) * (V(6) - V(5)) + {VOS}
B2 3 1 V = {SENS} * (V(10) - V(12)) * (V(6) - V(5)) + {VOS}
R7 4 9 1E4
C1 9 5 {TD/(2.3*1E4)}
E1 5 10 9 5 -1
R8 7 11 1E4
C2 11 5 {TD/(2.3*1E4)}
E2 5 12 11 5 -1
.ENDS
**********
*SRC=SCC15A;SCC15A;Sensors;Pressure;Absolute 15 psia
*SYM=DUCERA
*HELP issyntax.hlp "Pressure Sensor Models"
.SUBCKT SCC15A  4  6  2  1  5 {SENS=0.9M TD=0.1M VOS=-10M RIN=5K ROUT=5K}
*con            P1 Vs V+ V- Gnd
R1 6 1 {RIN}
R2 3 5 {RIN}
R3 6 2 {RIN}
R4 8 5 {RIN}
B1 2 8 V = {SENS} * (V(10) - V(12)) * (V(6) - V(5)) + {VOS}
B2 3 1 V = {SENS} * (V(10) - V(12)) * (V(6) - V(5)) + {VOS}
R7 4 9 1E4
C1 9 5 {TD/(2.3*1E4)}
E1 5 10 9 5 -1
R8 7 11 1E4
C2 11 5 {TD/(2.3*1E4)}
E2 5 12 11 5 -1
VA 7 0 DC 0.0005 ; 0.0005 psia chanber
.ENDS
**********
*SRC=SCC15D;SCC15D;Sensors;Pressure;Differential 15 psid(g)
*SYM=DUCERG
*HELP issyntax.hlp "Pressure Sensor Models"
.SUBCKT SCC15D  4  6  2  1  5   7 {SENS=0.9M TD=0.1M VOS=-10M RIN=5K ROUT=5K}
*con            P1 Vs V+ V- Gnd P2
R1 6 1 {RIN}
R2 3 5 {RIN}
R3 6 2 {RIN}
R4 8 5 {RIN}
B1 2 8 V = {SENS} * (V(10) - V(12)) * (V(6) - V(5)) + {VOS}
B2 3 1 V = {SENS} * (V(10) - V(12)) * (V(6) - V(5)) + {VOS}
R7 4 9 1E4
C1 9 5 {TD/(2.3*1E4)}
E1 5 10 9 5 -1
R8 7 11 1E4
C2 11 5 {TD/(2.3*1E4)}
E2 5 12 11 5 -1
.ENDS
**********
*SRC=SCC30D;SCC30D;Sensors;Pressure;Differential 30 psid(g)
*SYM=DUCERG
*HELP issyntax.hlp "Pressure Sensor Models"
.SUBCKT SCC30D  4  6  2  1  5   7 {SENS=0.7M TD=0.1M VOS=-10M RIN=5K ROUT=5K}
*con            P1 Vs V+ V- Gnd P2
R1 6 1 {RIN}
R2 3 5 {RIN}
R3 6 2 {RIN}
R4 8 5 {RIN}
B1 2 8 V = {SENS} * (V(10) - V(12)) * (V(6) - V(5)) + {VOS}
B2 3 1 V = {SENS} * (V(10) - V(12)) * (V(6) - V(5)) + {VOS}
R7 4 9 1E4
C1 9 5 {TD/(2.3*1E4)}
E1 5 10 9 5 -1
R8 7 11 1E4
C2 11 5 {TD/(2.3*1E4)}
E2 5 12 11 5 -1
.ENDS
**********
*SRC=SCC100G;SCC100G;Sensors;Pressure;Gage 100 psig
*SYM=DUCERG
*HELP issyntax.hlp "Pressure Sensor Models"
.SUBCKT SCC100G  4  6  2  1  5   7 {SENS=0.31M TD=0.1M VOS=-10M RIN=5K ROUT=5K}
*con             P1 Vs V+ V- Gnd P2
R1 6 1 {RIN}
R2 3 5 {RIN}
R3 6 2 {RIN}
R4 8 5 {RIN}
B1 2 8 V = {SENS} * (V(10) - V(12)) * (V(6) - V(5)) + {VOS}
B2 3 1 V = {SENS} * (V(10) - V(12)) * (V(6) - V(5)) + {VOS}
R7 4 9 1E4
C1 9 5 {TD/(2.3*1E4)}
E1 5 10 9 5 -1
R8 7 11 1E4
C2 11 5 {TD/(2.3*1E4)}
E2 5 12 11 5 -1
.ENDS
**********
*SRC=SCC100A;SCC100A;Sensors;Pressure;Absolute 100 psia
*SYM=DUCERA
*HELP issyntax.hlp "Pressure Sensor Models"
.SUBCKT SCC100A  4  6  2  1  5 {SENS=0.31M TD=0.1M VOS=-10M RIN=5K ROUT=5K}
*con             P1 Vs V+ V- Gnd
R1 6 1 {RIN}
R2 3 5 {RIN}
R3 6 2 {RIN}
R4 8 5 {RIN}
B1 2 8 V = {SENS} * (V(10) - V(12)) * (V(6) - V(5)) + {VOS}
B2 3 1 V = {SENS} * (V(10) - V(12)) * (V(6) - V(5)) + {VOS}
R7 4 9 1E4
C1 9 5 {TD/(2.3*1E4)}
E1 5 10 9 5 -1
R8 7 11 1E4
C2 11 5 {TD/(2.3*1E4)}
E2 5 12 11 5 -1
VA 7 0 DC 0.0005 ; 0.0005 psia chanber
.ENDS
**********
*SRC=SCC300A;SCC300A;Sensors;Pressure;Absolute 300 psia
*SYM=DUCERA
*HELP issyntax.hlp "Pressure Sensor Models"
.SUBCKT SCC300A  4  6  2  1  5 {SENS=0.0567M TD=0.1M VOS=-10M RIN=5K ROUT=5K}
*con             P1 Vs V+ V- Gnd
R1 6 1 {RIN}
R2 3 5 {RIN}
R3 6 2 {RIN}
R4 8 5 {RIN}
B1 2 8 V = {SENS} * (V(10) - V(12)) * (V(6) - V(5)) + {VOS}
B2 3 1 V = {SENS} * (V(10) - V(12)) * (V(6) - V(5)) + {VOS}
R7 4 9 1E4
C1 9 5 {TD/(2.3*1E4)}
E1 5 10 9 5 -1
R8 7 11 1E4
C2 11 5 {TD/(2.3*1E4)}
E2 5 12 11 5 -1
VA 7 0 DC 0.0005 ; 0.0005 psia chanber
.ENDS
**********
*SRC=SX01;SX01;Sensors;Pressure;Diff/Gage 1 psid(g)
*SYM=DUCERG
*HELP issyntax.hlp "Pressure Sensor Models"
.SUBCKT SX01  4  6  2  1  5   7 {SENS=4M TD=0.1M VOS=-20M RIN=4.65K ROUT=4.65K}
*con          P1 Vs V+ V- Gnd P2
R1 6 1 {RIN}
R2 3 5 {RIN}
R3 6 2 {RIN}
R4 8 5 {RIN}
B1 2 8 V = {SENS} * (V(10) - V(12)) * (V(6) - V(5)) + {VOS}
B2 3 1 V = {SENS} * (V(10) - V(12)) * (V(6) - V(5)) + {VOS}
R7 4 9 1E4
C1 9 5 {TD/(2.3*1E4)}
E1 5 10 9 5 -1
R8 7 11 1E4
C2 11 5 {TD/(2.3*1E4)}
E2 5 12 11 5 -1
.ENDS
**********
*SRC=SX05;SX05;Sensors;Pressure;Diff/Gage 5 psid(g)
*SYM=DUCERG
*HELP issyntax.hlp "Pressure Sensor Models"
.SUBCKT SX05  4  6  2  1  5   7 {SENS=3M TD=0.1M VOS=-20M RIN=4.65K ROUT=4.65K}
*con          P1 Vs V+ V- Gnd P2
R1 6 1 {RIN}
R2 3 5 {RIN}
R3 6 2 {RIN}
R4 8 5 {RIN}
B1 2 8 V = {SENS} * (V(10) - V(12)) * (V(6) - V(5)) + {VOS}
B2 3 1 V = {SENS} * (V(10) - V(12)) * (V(6) - V(5)) + {VOS}
R7 4 9 1E4
C1 9 5 {TD/(2.3*1E4)}
E1 5 10 9 5 -1
R8 7 11 1E4
C2 11 5 {TD/(2.3*1E4)}
E2 5 12 11 5 -1
.ENDS
**********
*SRC=SX15D;SX15D;Sensors;Pressure;Differential 15 psid
*SYM=DUCERG
*HELP issyntax.hlp "Pressure Sensor Models"
.SUBCKT SX15D  4  6  2  1  5   7 {SENS=1.5M TD=0.1M VOS=-20M RIN=4.5K ROUT=4.5K}
*con           P1 Vs V+ V- Gnd P2
R1 6 1 {RIN}
R2 3 5 {RIN}
R3 6 2 {RIN}
R4 8 5 {RIN}
B1 2 8 V = {SENS} * (V(10) - V(12)) * (V(6) - V(5)) + {VOS}
B2 3 1 V = {SENS} * (V(10) - V(12)) * (V(6) - V(5)) + {VOS}
R7 4 9 1E4
C1 9 5 {TD/(2.3*1E4)}
E1 5 10 9 5 -1
R8 7 11 1E4
C2 11 5 {TD/(2.3*1E4)}
E2 5 12 11 5 -1
.ENDS
**********
*SRC=SX15A;SX15A;Sensors;Pressure;Absolute 15 psia
*SYM=DUCERA
*HELP issyntax.hlp "Pressure Sensor Models"
.SUBCKT SX15A  4  6  2  1  5 {SENS=1.5M TD=0.1M VOS=-20M RIN=4.5K ROUT=4.5K}
*con           P1 Vs V+ V- Gnd
R1 6 1 {RIN}
R2 3 5 {RIN}
R3 6 2 {RIN}
R4 8 5 {RIN}
B1 2 8 V = {SENS} * (V(10) - V(12)) * (V(6) - V(5)) + {VOS}
B2 3 1 V = {SENS} * (V(10) - V(12)) * (V(6) - V(5)) + {VOS}
R7 4 9 1E4
C1 9 5 {TD/(2.3*1E4)}
E1 5 10 9 5 -1
R8 7 11 1E4
C2 11 5 {TD/(2.3*1E4)}
E2 5 12 11 5 -1
VA 7 0 DC 0.0005 ; 0.0005 psia chamber
.ENDS
**********
*SRC=SX30D;SX30D;Sensors;Pressure;Differential 30psid
*SYM=DUCERG
*HELP issyntax.hlp "Pressure Sensor Models"
.SUBCKT SX30D  4  6  2  1  5   7 {SENS=0.75M TD=0.1M VOS=-20M RIN=4.5K ROUT=4.5K}
*con           P1 Vs V+ V- Gnd P2
R1 6 1 {RIN}
R2 3 5 {RIN}
R3 6 2 {RIN}
R4 8 5 {RIN}
B1 2 8 V = {SENS} * (V(10) - V(12)) * (V(6) - V(5)) + {VOS}
B2 3 1 V = {SENS} * (V(10) - V(12)) * (V(6) - V(5)) + {VOS}
R7 4 9 1E4
C1 9 5 {TD/(2.3*1E4)}
E1 5 10 9 5 -1
R8 7 11 1E4
C2 11 5 {TD/(2.3*1E4)}
E2 5 12 11 5 -1
.ENDS
**********
*SRC=SX30A;SX30A;Sensors;Pressure;Absolute 30 psia
*SYM=DUCERA
*HELP issyntax.hlp "Pressure Sensor Models"
.SUBCKT SX30A  4  6  2  1  5 {SENS=0.75M TD=0.1M VOS=-20M RIN=4.5K ROUT=4.5K}
*con           P1 Vs V+ V- Gnd
R1 6 1 {RIN}
R2 3 5 {RIN}
R3 6 2 {RIN}
R4 8 5 {RIN}
B1 2 8 V = {SENS} * (V(10) - V(12)) * (V(6) - V(5)) + {VOS}
B2 3 1 V = {SENS} * (V(10) - V(12)) * (V(6) - V(5)) + {VOS}
R7 4 9 1E4
C1 9 5 {TD/(2.3*1E4)}
E1 5 10 9 5 -1
R8 7 11 1E4
C2 11 5 {TD/(2.3*1E4)}
E2 5 12 11 5 -1
VA 7 0 DC 0.0005 ; 0.0005 psia chamber
.ENDS
**********
*SRC=SX100D;SX100D;Sensors;Pressure;Differential 100 psid
*SYM=DUCERG
*HELP issyntax.hlp "Pressure Sensor Models"
.SUBCKT SX100D  4  6  2  1  5   7 {SENS=0.3M TD=0.1M VOS=-20M RIN=4.5K ROUT=4.5K}
*con            P1 Vs V+ V- Gnd P2
R1 6 1 {RIN}
R2 3 5 {RIN}
R3 6 2 {RIN}
R4 8 5 {RIN}
B1 2 8 V = {SENS} * (V(10) - V(12)) * (V(6) - V(5)) + {VOS}
B2 3 1 V = {SENS} * (V(10) - V(12)) * (V(6) - V(5)) + {VOS}
R7 4 9 1E4
C1 9 5 {TD/(2.3*1E4)}
E1 5 10 9 5 -1
R8 7 11 1E4
C2 11 5 {TD/(2.3*1E4)}
E2 5 12 11 5 -1
.ENDS
**********
*SRC=SX100A;SX100A;Sensors;Pressure;Absolute 100 psia
*SYM=DUCERA
*HELP issyntax.hlp "Pressure Sensor Models"
.SUBCKT SX100A  4  6  2  1  5 {SENS=0.3M TD=0.1M VOS=-20M RIN=4.5K ROUT=4.5K}
*con            P1 Vs V+ V- Gnd
R1 6 1 {RIN}
R2 3 5 {RIN}
R3 6 2 {RIN}
R4 8 5 {RIN}
B1 2 8 V = {SENS} * (V(10) - V(12)) * (V(6) - V(5)) + {VOS}
B2 3 1 V = {SENS} * (V(10) - V(12)) * (V(6) - V(5)) + {VOS}
R7 4 9 1E4
C1 9 5 {TD/(2.3*1E4)}
E1 5 10 9 5 -1
R8 7 11 1E4
C2 11 5 {TD/(2.3*1E4)}
E2 5 12 11 5 -1
VA 7 0 DC 0.0005 ; 0.0005 psia chamber
.ENDS
**********
*SRC=SX150D;SX150D;Sensors;Pressure;Differential 150 psid
*SYM=DUCERG
*HELP issyntax.hlp "Pressure Sensor Models"
.SUBCKT SX150D  4  6  2  1  5   7 {SENS=0.15M TD=0.1M VOS=-20M RIN=4.5K ROUT=4.5K}
*con            P1 Vs V+ V- Gnd P2
R1 6 1 {RIN}
R2 3 5 {RIN}
R3 6 2 {RIN}
R4 8 5 {RIN}
B1 2 8 V = {SENS} * (V(10) - V(12)) * (V(6) - V(5)) + {VOS}
B2 3 1 V = {SENS} * (V(10) - V(12)) * (V(6) - V(5)) + {VOS}
R7 4 9 1E4
C1 9 5 {TD/(2.3*1E4)}
E1 5 10 9 5 -1
R8 7 11 1E4
C2 11 5 {TD/(2.3*1E4)}
E2 5 12 11 5 -1
.ENDS
**********
*SRC=SX150A;SX150A;Sensors;Pressure;Absolute 150 psia
*SYM=DUCERA
*HELP issyntax.hlp "Pressure Sensor Models"
.SUBCKT SX150A  4  6  2  1  5 {SENS=0.15M TD=0.1M VOS=-20M RIN=4.5K ROUT=4.5K}
*con            P1 Vs V+ V- Gnd
R1 6 1 {RIN}
R2 3 5 {RIN}
R3 6 2 {RIN}
R4 8 5 {RIN}
B1 2 8 V = {SENS} * (V(10) - V(12)) * (V(6) - V(5)) + {VOS}
B2 3 1 V = {SENS} * (V(10) - V(12)) * (V(6) - V(5)) + {VOS}
R7 4 9 1E4
C1 9 5 {TD/(2.3*1E4)}
E1 5 10 9 5 -1
R8 7 11 1E4
C2 11 5 {TD/(2.3*1E4)}
E2 5 12 11 5 -1
VA 7 0 DC 0.0005 ; 0.0005 psia chamber
.ENDS
**********
*SRC=SSX15G;SSX15G;Sensors;Pressure;Gage 15 psig
*SYM=DUCERG
*HELP issyntax.hlp "Pressure Sensor Models"
.SUBCKT SSX15G  4  6  2  1  5   7 {SENS=0.5M TD=1M VOS=500U RIN=4K ROUT=4K}
*con            P1 Vs V+ V- Gnd P2
R1 6 1 {RIN}
R2 3 5 {RIN}
R3 6 2 {RIN}
R4 8 5 {RIN}
B1 2 8 V = {SENS} * (V(10) - V(12)) * (V(6) - V(5)) + {VOS}
B2 3 1 V = {SENS} * (V(10) - V(12)) * (V(6) - V(5)) + {VOS}
R7 4 9 1E4
C1 9 5 {TD/(2.3*1E4)}
E1 5 10 9 5 -1
R8 7 11 1E4
C2 11 5 {TD/(2.3*1E4)}
E2 5 12 11 5 -1
.ENDS
**********
*SRC=SSX30G;SSX30G;Sensors;Pressure;Gage 3 psig
*SYM=DUCERG
*HELP issyntax.hlp "Pressure Sensor Models"
.SUBCKT SSX30G  4  6  2  1  5   7 {SENS=0.25M TD=1M VOS=500U RIN=4K ROUT=4K}
*con            P1 Vs V+ V- Gnd P2
R1 6 1 {RIN}
R2 3 5 {RIN}
R3 6 2 {RIN}
R4 8 5 {RIN}
B1 2 8 V = {SENS} * (V(10) - V(12)) * (V(6) - V(5)) + {VOS}
B2 3 1 V = {SENS} * (V(10) - V(12)) * (V(6) - V(5)) + {VOS}
R7 4 9 1E4
C1 9 5 {TD/(2.3*1E4)}
E1 5 10 9 5 -1
R8 7 11 1E4
C2 11 5 {TD/(2.3*1E4)}
E2 5 12 11 5 -1
.ENDS
**********
*SRC=SSX100G;SSX100G;Sensors;Pressure;Gage 100 psig
*SYM=DUCERG
*HELP issyntax.hlp "Pressure Sensor Models"
.SUBCKT SSX100G  4  6  2  1  5   7 {SENS=0.0833M TD=1M VOS=500U RIN=4K ROUT=4K}
*con             P1 Vs V+ V- Gnd P2
R1 6 1 {RIN}
R2 3 5 {RIN}
R3 6 2 {RIN}
R4 8 5 {RIN}
B1 2 8 V = {SENS} * (V(10) - V(12)) * (V(6) - V(5)) + {VOS}
B2 3 1 V = {SENS} * (V(10) - V(12)) * (V(6) - V(5)) + {VOS}
R7 4 9 1E4
C1 9 5 {TD/(2.3*1E4)}
E1 5 10 9 5 -1
R8 7 11 1E4
C2 11 5 {TD/(2.3*1E4)}
E2 5 12 11 5 -1
.ENDS
**********
*SRC=SSX150G;SSX150G;Sensors;Pressure;Gage 150 psig
*SYM=DUCERG
*HELP issyntax.hlp "Pressure Sensor Models"
.SUBCKT SSX150G  4  6  2  1  5   7 {SENS=0.05M TD=1M VOS=500U RIN=4K ROUT=4K}
*con             P1 Vs V+ V- Gnd P2
R1 6 1 {RIN}
R2 3 5 {RIN}
R3 6 2 {RIN}
R4 8 5 {RIN}
B1 2 8 V = {SENS} * (V(10) - V(12)) * (V(6) - V(5)) + {VOS}
B2 3 1 V = {SENS} * (V(10) - V(12)) * (V(6) - V(5)) + {VOS}
R7 4 9 1E4
C1 9 5 {TD/(2.3*1E4)}
E1 5 10 9 5 -1
R8 7 11 1E4
C2 11 5 {TD/(2.3*1E4)}
E2 5 12 11 5 -1
.ENDS
**********
*SRC=SSX300G;SSX300G;Sensors;Pressure;Gage 300 psig
*SYM=DUCERG
*HELP issyntax.hlp "Pressure Sensor Models"
.SUBCKT SSX300G  4  6  2  1  5   7 {SENS=0.0167M TD=1M VOS=500U RIN=4K ROUT=4K}
*con             P1 Vs V+ V- Gnd P2
R1 6 1 {RIN}
R2 3 5 {RIN}
R3 6 2 {RIN}
R4 8 5 {RIN}
B1 2 8 V = {SENS} * (V(10) - V(12)) * (V(6) - V(5)) + {VOS}
B2 3 1 V = {SENS} * (V(10) - V(12)) * (V(6) - V(5)) + {VOS}
R7 4 9 1E4
C1 9 5 {TD/(2.3*1E4)}
E1 5 10 9 5 -1
R8 7 11 1E4
C2 11 5 {TD/(2.3*1E4)}
E2 5 12 11 5 -1
.ENDS
**********
*SRC=SSX500G;SSX500G;Sensors;Pressure;Gage 500 psig
*SYM=DUCERG
*HELP issyntax.hlp "Pressure Sensor Models"
.SUBCKT SSX500G  4  6  2  1  5   7 {SENS=0.0167M TD=1M VOS=500U RIN=4K ROUT=4K}
*con             P1 Vs V+ V- Gnd P2
R1 6 1 {RIN}
R2 3 5 {RIN}
R3 6 2 {RIN}
R4 8 5 {RIN}
B1 2 8 V = {SENS} * (V(10) - V(12)) * (V(6) - V(5)) + {VOS}
B2 3 1 V = {SENS} * (V(10) - V(12)) * (V(6) - V(5)) + {VOS}
R7 4 9 1E4
C1 9 5 {TD/(2.3*1E4)}
E1 5 10 9 5 -1
R8 7 11 1E4
C2 11 5 {TD/(2.3*1E4)}
E2 5 12 11 5 -1
.ENDS
**********
*SRC=LDUCER;LDUCER;Generic Models;Pressure Transducer;
*SYM=LDUCER
*HELP issyntax.hlp "Pressure Sensor Models"
.SUBCKT LDUCER   4    3  1 2 {SENS=??? RIN=??? ROUT=???}
* Connections    Pres VB + -
B1 1 2 V = {SENS} * V(4) * V(3) + {VOS}
RIN 3 0 {RIN}
ROUT 1 2 {ROUT}
.ENDS
**********
*SRC=TLDUCER;TLDUCER;Generic Models;Pressure Transducer;Varies w/.Opt Temp
*SYM=TLDUCER
*HELP issyntax.hlp "Pressure Sensor Models"
.SUBCKT TLDUCER  4    3  1 2 {TNOM=25 TEMP=25 TCR=0 TCV=0 TCS1=0 TCS2=0 RIN=??? ROUT=???}
* Connections    Pres VB + -
B1 1 2 V = ({SENS} * (1 + {TCS1*(TEMP-TNOM)} + {TCS2*(TEMP-TNOM)^2})) * V(4) * V(3) + 
+ ({VOS} * (1 + {TCV*(TEMP-TNOM)}))
RIN 3 0 {RIN} RMOD
ROUT 1 2 {ROUT} RMOD
.MODEL RMOD R(TC1={TCR})
.ENDS
**********
* Library of Motorola Pressure Sensor Models
* Motorola Pressure Sensor Macromodel Library
* Rev 1.0
*
* See Motsens.txt for a further explanation of the sensor models.
*
* Motorola Inc.
* Semiconductor Products Sector
* Sensor Products Division
* 5005 East McDowell Road
* Phoenix, AZ 85008
* (602) 244-4556
*
* The pressure inputs (nodes 5 and 6 for basic and
* compensated sensor models, nodes 7 and 8 for the integrated
* sensor model) are intended to be connected to an independent
* voltage source that represents the differential pressure across
* the sensor device. A second independent voltage source can be
* connected from node 6 or 8 to circuit ground to represent the
* common mode pressure seen at both pressure inputs. Connecting
* node 6 or 8 directly to ground potential is analogous to applying
* an absolute or gage pressure to the sensor device.
*
* Author: Jeff Baum and Aiteen Zhang
* Date:   November 11, 1994
* Revise: December 1, 1994
*
****** MPX Basic Pressure Sensors ******
*
* MPX Basic Pressure Sensors consists of
* MPX10, MPX12, MPX50, MPX100, MPX200, MPX700
*
****** MPX Compensated Pressure Sensors ******
*
* MPX Compensated Pressure Sensors consists of
* MPX2010, MPX2012, MPX2050 MPX2051, MPX2052, MPX2100, MPX2101
* MPX2200, MPX2201, MPX7050, MPX7100, MPX7200
*
****** MPX Integrated Pressure Sensors ******
*
* MPX Integrated Pressure Sensors consists of
* MPX4100, MPX4101, MPX4115, MPX4250, MPX5050, MPX5100A, MPX5100D
*
* Motorola reserves the right to make changes without further notice to any
* products herein. Motorola makes no warranty, representation or guarantee
* regarding the suitability of its products for any particular purpose, nor
* does Motorola assume any liability arising out of the application or use
* of any product or circuit, and specifically disclaims any and all
* liability, including without limitation consequential or incidental
* damages. "Typical" parameters can and do vary in different applications.
* All operating parameters, including "Typicals" must be validated for each
* customer application by customer's technical experts. Motorola does not
* convey any license under its patent rights nor the rights of others.
* Motorola products are not designed, intended, or authorized for use as
* components in systems intended for surgical implant into the body, or
* other  applications intended to support or sustain life, or for any
* other application in which the failure of the Motorola product could
* create a situation where personal injury or death may occur. Should
* Buyer purchase or use Motorola products for any such unintended or
* unauthorized application, Buyer shall indemnify and hold Motorola and
* its officers, employees, subsidiaries, affiliates, and distributors
* harmless against all claims, costs, damages, and expenses, and
* reasonable attorney fees arising out of, directly or indirectly,
* any claim of personal injury or death associated with such
* unintended or unauthorized use, even if such claim alleges that
* Motorola was negligent regarding the design or manufacture of the
* part. Motorola and (Motorola logo symbol) are registered trademarks of
* Motorola, Inc. Motorola, Inc. is an Equal Opportunity/Affirmative
* Action Employer.
*
*******
.MODEL RMOT1 R(TC1=0.0024)
*******
.MODEL RMOT2 R(TC1=0.0037)
*******
*
*
* Parameter Comments
* ------------------
* Vs = V(11,1)          The voltage at the internal supply voltage node
*                       of the sensor model.
* Voff = 20 mV          Zero pressure offset at 25C and 3V excitation
*                       voltage.
* SENS = 3.5 mV/kPa     Pressure sensitivity at 25C and 3V excitation
*                       voltage.
* TCVfss = -0.19 %/C    Based on current process (depth of sensor element
*                       and doping).
* TCVoff = 0.015 mV/C   Due to CTE mismatches and thermal package stresses.
* TCR = 0.24 %/C        Based on current process (sensor element resistivity).
* Tn = 25C              Reference temperature used in data sheet
*                       specifications.
* P = V(10,6)           The voltage (represents pressure) at the internal
*                       pressure node of the sensor model.
* Zin = 459             Input Impedance of sensor at 25C.
* Zoutp = 579           Output Impedance of sensor at 25C.
* Zoutn = 622           Output Impedance of sensor at 25C.
* Vsnom = 3 V           Nominal supply (excitation) voltage for data sheet
*                       specifications.
*
********
*SRC=MPX10MC;MPX10MC;Sensors;Pressure;Uncomp 0-1.45 PSI/10 kPa
*SYM=MOTSENS
*HELP issyntax.hlp "Pressure Sensor Models"
.SUBCKT MPX10MC 1 2 3 4 5 6 {SENS=3.5E-3 TCVFSS=-0.19E-2 TN=25 VOFF=20E-3 TCVOFF=0.015E-3 VSNOM=3 ZIN=459 ZOUTP=579 ZOUTN=622 }
*
* Parameter Comments
* ------------------
* Vs = V(11,1)           The voltage at the internal supply voltage node of
*                        the sensor model.
* Voff = 20 mV           Zero pressure offset at 25C and 3V excitation
*                        voltage.
* SENS = 5.5 mV/kPa      Pressure sensitivity at 25C and 3V excitation
*                        voltage.
* TCVfss = -0.19 %/C     Based on current process (depth of sensor element
*                        and doping).
* TCVoff = 0.015 mV/C    Due to CTE mismatches and thermal package
*                        stresses.
* TCR = 0.24 %/C         Based on current process (sensor element
*                        resistivity).
* Tn = 25C               Reference temperature used in data sheet
*                        specifications.
* P = V(10,6)            The voltage (represents pressure) at the internal
*                        pressure node of the sensor model.
* Zin = 460              Input Impedance of sensor at 25C.
* Zoutp = 560            Output Impedance of sensor at 25C.
* Zoutn = 546            Output Impedance of sensor at 25C.
* Vsnom = 3 V            Nominal supply (excitation) voltage for data sheet
*                        specifications.
*
* Pressure Input
* --------------
* An arbitrary small number of 1  is chosen for RP1 for easy multiplication.
* An arbitrary large number of 1000G  is chosen for RP2.
* CP = 0.45mF is based on the data sheet so that a mechanical time response
* of 1ms is achieved.
*
RP1 5 10 1 				
RP2 6 10 1000G 	
CP  6 10 0.45mF
*
* Supply Input
* ------------
* A small value of 1  is chosen for RS1 so that the supply voltage is
* almost 100% at dc.  The users should change this value to the source
* resistance of the voltage source they are using in order to see the
* electrical response time.  RS2 = Zin. The value of the input resistance,
* Zin, is chosen based on the data given by the data book.
* A measured value of 20pF is assigned to CS.
*
.MODEL RMOT1 R(TC1=0.0024)
RS1 3 11 1
RS2 1 11 {Zin} RMOT1;TC = 0.0024
CS  1 11 20pF
*
* Output
*
ROUTp 7 2 {Zoutp} RMOT1;TC = 0.0024
ROUTm 9 4 {Zoutn} RMOT1;TC = 0.0024
*
* A typical value for the common mode voltage, Ecom, is half of the
* excitation voltage. It was modeled by splitting the output voltage source.
*
BEcom 8 0 v =   V(11,1)/2
BEdiffp 7 8 v = ({SENS} * (1+{TCVfss}*(TEMP-{Tn})) * V(10,6) +
+                   ({Voff}+{TCVoff}*(TEMP-{Tn}))) * V(11,1)/{Vsnom}/2
BEdiffm 8 9 v = ({SENS} * (1+{TCVfss}*(TEMP-{Tn})) * V(10,6) +
+                   ({Voff}+{TCVoff}*(TEMP-{Tn}))) * V(11,1)/{Vsnom}/2
.ENDS
*
*
********
*SRC=MPX12MC;MPX12MC;Sensors;Pressure;Uncomp 0-1.5 PSI
*SYM=MOTSENS
*HELP issyntax.hlp "Pressure Sensor Models"
.SUBCKT MPX12MC 1 2 3 4 5 6 {SENS=5.5E-3 TCVFSS=-0.19E-2 TN=25 VOFF=20E-3 TCVOFF=0.015E-3 VSNOM=3 ZIN=460 ZOUTP=560 ZOUTN=546}
*
* Pressure Input
* --------------
* An arbitrary small number of 1  is chosen for RP1 for easy multiplication.
* An arbitrary large number of 1000G  is chosen for RP2.
* CP = 0.45mF is based on the data sheet so that a mechanical time response of
* 1ms is achieved.
*
RP1 5 10 1 				
RP2 6 10 1000G 	
CP  6 10 0.45mF
*
* Supply Input
* ------------
* A small value of 1  is chosen for RS1 so that the supply voltage is almost
* 100% at dc.  The users should change this value to the source resistance of
* the voltage source they are using in order to see the electrical response
* time.
* RS2 = Zin. The value of the input resistance, Zin, is chosen based on the
* data given by the data book.
* A measured value of 20pF is assigned to CS.
*
.MODEL RMOT1 R(TC1=0.0024)
RS1 3 11 1
RS2 1 11 {Zin} RMOT1;TC = 0.0024
CS  1 11 20pF
*
* Output
*
ROUTp 7 2 {Zoutp} RMOT1;TC = 0.0024
ROUTm 9 4 {Zoutn} RMOT1;TC = 0.0024
*
* A typical value for the common mode voltage, Ecom, is half of the excitation
* voltage.
* It was modeled by splitting the output voltage source.
*
BEcom 8 0 v =   V(11,1)/2
BEdiffp 7 8 v = ({SENS} * (1+{TCVFSS}*(TEMP-{Tn})) * V(10,6) +
+                   ({Voff}+{TCVoff}*(TEMP-{Tn}))) * V(11,1)/{Vsnom}/2
BEdiffm 8 9 v = ({SENS} * (1+{TCVFSS}*(TEMP-{Tn})) * V(10,6) +
+                   ({Voff}+{TCVoff}*(TEMP-{Tn}))) * V(11,1)/{Vsnom}/2
.ENDS
*************
* Parameter Comments
* ------------------
* Vs = V(11,1)          The voltage at the internal supply voltage node of the
*                       sensor model.
* Voff = 20 mV          Zero pressure offset at 25C and 3V excitation
*                       voltage.
* SENS = 1.2 mV/kPa     Pressure sensitivity at 25C and 3V excitation
                        voltage.
* TCVFSS = -0.19 %/C    Based on current process (depth of sensor element
*                       and doping).
* TCVoff = 0.015 mV/C   Due to CTE mismatches and thermal package stresses.
* TCR = 0.24 %/C        Based on current process (sensor element resistivity).
* Tn = 25C              Reference temperature used in data sheet
*                       specifications.
* P = V(10,6)           The voltage (represents pressure) at the internal
*                       pressure node of the sensor model.
* Zin = 450             Input Impedance of sensor at 25C.
* Zoutp = 847           Output Impedance of sensor at 25C.
* Zoutn = 953           Output Impedance of sensor at 25C.
* Vsnom = 3 V           Nominal supply (excitation) voltage for data sheet
*                       specifications.
*
********
*SRC=MPX50MC;MPX50MC;Sensors;Pressure;Uncomp 0-7.3 PSI/ 50 kPa
*SYM=MOTSENS
*HELP issyntax.hlp "Pressure Sensor Models"
.SUBCKT MPX50MC 1 2 3 4 5 6 {SENS=1.2E-3 TCVFSS=-0.19E-2 TN=25 VOFF=20E-3 TCVOFF=0.015E-3 VSNOM=3 ZIN=450 ZOUTP=847 ZOUTN=953}
*
* Pressure Input
* --------------
* An arbitrary small number of 1  is chosen for RP1 for easy multiplication.
* An arbitrary large number of 1000G  is chosen for RP2.
* CP = 0.45mF is based on the data sheet so that a mechanical time response of
* 1ms is achieved.
*
RP1 5 10 1 				
RP2 6 10 1000G 	
CP  6 10 0.45mF
*
* Supply Input
* ------------
* A small value of 1  is chosen for RS1 so that the supply voltage is almost
* 100% at dc.  The users should change this value to the source resistance of
* the voltage source they are using in order to see the electrical response
* time.
* RS2 = Zin. The value of the input resistance, Zin, is chosen based on the
* data given by the data book.
* A measured value of 20pF is assigned to CS.
*
.MODEL RMOT1 R(TC1=0.0024)
RS1 3 11 1
RS2 1 11 {Zin} RMOT1;TC = 0.0024
CS  1 11 20pF
*
* Output
*
ROUTP 7 2 {Zoutp} RMOT1;TC = 0.0024
ROUTN 9 4 {Zoutn} RMOT1;TC = 0.0024
*
* A typical value for the common mode voltage, Ecom, is half of the excitation
* voltage.It was modeled by splitting the output voltage source.
*
BEcom 8 0 v =   V(11,1)/2
BEdiff+ 7 8 v = ({SENS} * (1+{TCVFSS}*(TEMP-{Tn})) * V(10,6) +
+                   ({Voff}+{TCVoff}*(TEMP-{Tn}))) * V(11,1)/{Vsnom}/2
BEdiff- 8 9 v = ({SENS} * (1+{TCVFSS}*(TEMP-{Tn})) * V(10,6) +
+                   ({Voff}+{TCVoff}*(TEMP-{Tn}))) * V(11,1)/{Vsnom}/2
*
.ENDS
*
********
* Parameter Comments
* ------------------
* Vs = V(11,1)           The voltage at the internal supply voltage node of
*                        the sensor model.
* Voff = 20 mV           Zero pressure offset at 25C and 3V excitation
*                        voltage.
* SENS = 0.6 mV/kPa      Pressure sensitivity at 25C and 3V excitation
*                        voltage.
* TCVFSS = -0.19 %/C     Based on current process (depth of sensor element
*                        and doping).
* TCVoff = 0.015 mV/C    Due to CTE mismatches and thermal package stresses.
* TCR = 0.24 %/C         Based on current process (sensor element
*                        resistivity).
* Tn = 25C               Reference temperature used in data sheet
*                        specifications.
* P = V(10,6)            The voltage (represents pressure) at the internal
*                        pressure node of the sensor model.
* Zin = 456              Input Impedance of sensor at 25C.
* Zoutp = 707            Output Impedance of sensor at 25C.
* Zoutn = 826            Output Impedance of sensor at 25C.
* Vsnom = 3 V            Nominal supply (excitation) voltage for data sheet
*                        specifications.
********
*SRC=MPX100MC;MPX100MC;Sensors;Pressure;Uncomp 0-14.5 PSI/ 100 kPa
*SYM=MOTSENS
*HELP issyntax.hlp "Pressure Sensor Models"
.SUBCKT MPX100MC 1 2 3 4 5 6 {SENS=0.6E-3 TCVFSS=-0.19E-2 TN=25 VOFF=20E-3 TCVOFF=0.015E-3 VSNOM=3 ZIN=456 ZOUTP=707 ZOUTN=826}
*
* Pressure Input
* --------------
* An arbitrary small number of 1  is chosen for RP1 for easy multiplication.