**********
* Copyright Intusoft 1988-1997
* All Rights Reserved
**********
**********
*SRC=RAN4;RAN4;!Generators;Signal;Random Noise 256 Points
*SYM=RAN4
*HELP issyntax.hlp "Random Noise - RANDOM.LIB"
.SUBCKT RAN4 4 {TIM=??? MAG=???}
*Parameters:
* TIM Total time for the source to be active, usually equal to Tstop (total analysis time
* MAG RMS Amplitude for the signal in Volts
R1 0 1 1K
V1 1 0 PWL 0,{-1.7071*MAG},{0.00391*TIM},{-0.7963*MAG},
+ {0.00781*TIM},{1.2776*MAG},{0.01172*TIM},{0.3415*MAG},{0.01563*TIM},{0.6172*MAG},
+ {0.01953*TIM},{1.8151*MAG},{0.02344*TIM},{0.0283*MAG},{0.02734*TIM},{-0.5701*MAG},{0.03125*TIM},{-0.9674*MAG},
+ {0.03516*TIM},{1.0938*MAG},{0.03906*TIM},{0.3367*MAG},{0.04297*TIM},{-1.2055*MAG},{0.04688*TIM},{-0.0816*MAG},
+ {0.05078*TIM},{0.5251*MAG},{0.05469*TIM},{1.1893*MAG},{0.05859*TIM},{-0.4481*MAG},{0.06250*TIM},{0.2606*MAG},
+ {0.06641*TIM},{1.2998*MAG},{0.07031*TIM},{0.5853*MAG},{0.07422*TIM},{1.1076*MAG},{0.07813*TIM},{0.8212*MAG},
+ {0.08203*TIM},{0.0640*MAG},{0.08594*TIM},{-0.5064*MAG},{0.08984*TIM},{1.1468*MAG},{0.09375*TIM},{-0.0975*MAG},
+ {0.09766*TIM},{0.7082*MAG},{0.10156*TIM},{0.4784*MAG},{0.10547*TIM},{-0.4538*MAG},{0.10938*TIM},{-1.2193*MAG},
+ {0.11328*TIM},{-0.0037*MAG},{0.11719*TIM},{1.0632*MAG},{0.12109*TIM},{-0.1734*MAG},{0.12500*TIM},{-1.3228*MAG},
+ {0.12891*TIM},{-1.1048*MAG},{0.13281*TIM},{-1.2528*MAG},{0.13672*TIM},{-1.0899*MAG},{0.14063*TIM},{0.4812*MAG},
+ {0.14453*TIM},{-0.1352*MAG},{0.14844*TIM},{-0.7478*MAG},{0.15234*TIM},{-0.2347*MAG},{0.15625*TIM},{0.9441*MAG},
+ {0.16016*TIM},{-0.9050*MAG},{0.16406*TIM},{-1.3857*MAG},{0.16797*TIM},{1.2123*MAG},{0.17188*TIM},{0.0318*MAG},
+ {0.17578*TIM},{0.4510*MAG},{0.17969*TIM},{0.4953*MAG},{0.18359*TIM},{2.7448*MAG},{0.18750*TIM},{-0.1136*MAG},
+ {0.19141*TIM},{-2.2153*MAG},{0.19531*TIM},{0.2983*MAG},{0.19922*TIM},{0.8340*MAG},{0.20313*TIM},{0.3497*MAG},
+ {0.20703*TIM},{-1.0132*MAG},{0.21094*TIM},{1.8795*MAG},{0.21484*TIM},{-1.6835*MAG},{0.21875*TIM},{2.0979*MAG},
+ {0.22266*TIM},{0.7598*MAG},{0.22656*TIM},{0.1564*MAG},{0.23047*TIM},{1.2644*MAG},{0.23438*TIM},{1.9497*MAG},
+ {0.23828*TIM},{1.9288*MAG},{0.24219*TIM},{-0.5320*MAG},{0.24609*TIM},{-0.4248*MAG},{0.25000*TIM},{0.3700*MAG},
+ {0.25391*TIM},{-0.5430*MAG},{0.25781*TIM},{-0.1687*MAG},{0.26172*TIM},{-0.8796*MAG},{0.26563*TIM},{1.0543*MAG},
+ {0.26953*TIM},{-0.3865*MAG},{0.27344*TIM},{-0.7241*MAG},{0.27734*TIM},{-2.0105*MAG},{0.28125*TIM},{0.7662*MAG},
+ {0.28516*TIM},{0.7985*MAG},{0.28906*TIM},{-0.3744*MAG},{0.29297*TIM},{-1.7251*MAG},{0.29688*TIM},{0.1530*MAG},
+ {0.30078*TIM},0
R2 1 2 1K
V2 2 1 PWL 0,0,{0.30078*TIM},0,
+ {0.30469*TIM},{0.7102*MAG},{0.30859*TIM},{0.9168*MAG},{0.31250*TIM},{2.6100*MAG},
+ {0.31641*TIM},{0.5113*MAG},{0.32031*TIM},{-0.8594*MAG},{0.32422*TIM},{-0.6596*MAG},{0.32813*TIM},{-0.5798*MAG},
+ {0.33203*TIM},{-0.7885*MAG},{0.33594*TIM},{0.8819*MAG},{0.33984*TIM},{-0.6081*MAG},{0.34375*TIM},{-1.0535*MAG},
+ {0.34766*TIM},{0.3617*MAG},{0.35156*TIM},{1.5483*MAG},{0.35547*TIM},{1.4671*MAG},{0.35938*TIM},{0.4745*MAG},
+ {0.36328*TIM},{-0.3490*MAG},{0.36719*TIM},{0.2651*MAG},{0.37109*TIM},{0.2824*MAG},{0.37500*TIM},{-0.7064*MAG},
+ {0.37891*TIM},{0.7901*MAG},{0.38281*TIM},{0.3947*MAG},{0.38672*TIM},{0.0221*MAG},{0.39063*TIM},{0.2809*MAG},
+ {0.39453*TIM},{0.4867*MAG},{0.39844*TIM},{0.6606*MAG},{0.40234*TIM},{-1.5449*MAG},{0.40625*TIM},{0.8975*MAG},
+ {0.41016*TIM},{-1.0717*MAG},{0.41406*TIM},{0.0592*MAG},{0.41797*TIM},{1.1149*MAG},{0.42188*TIM},{-1.0199*MAG},
+ {0.42578*TIM},{1.0596*MAG},{0.42969*TIM},{1.1580*MAG},{0.43359*TIM},{1.9226*MAG},{0.43750*TIM},{0.0198*MAG},
+ {0.44141*TIM},{-0.0962*MAG},{0.44531*TIM},{-0.2933*MAG},{0.44922*TIM},{0.4640*MAG},{0.45313*TIM},{-0.0366*MAG},
+ {0.45703*TIM},{0.9483*MAG},{0.46094*TIM},{-0.0064*MAG},{0.46484*TIM},{0.7035*MAG},{0.46875*TIM},{-1.3242*MAG},
+ {0.47266*TIM},{0.5477*MAG},{0.47656*TIM},{-0.5799*MAG},{0.48047*TIM},{-1.8419*MAG},{0.48438*TIM},{-0.2017*MAG},
+ {0.48828*TIM},{0.3269*MAG},{0.49219*TIM},{-0.6420*MAG},{0.49609*TIM},{-0.6715*MAG},{0.50000*TIM},{0.1030*MAG},
+ {0.50391*TIM},{0.8482*MAG},{0.50781*TIM},{0.7538*MAG},{0.51172*TIM},{-0.8645*MAG},{0.51563*TIM},{-0.6044*MAG},
+ {0.51953*TIM},{0.1590*MAG},{0.52344*TIM},{-0.6871*MAG},{0.52734*TIM},{-0.8174*MAG},{0.53125*TIM},{0.6844*MAG},
+ {0.53516*TIM},{0.3329*MAG},{0.53906*TIM},{-0.6527*MAG},{0.54297*TIM},{2.0978*MAG},{0.54688*TIM},{1.3662*MAG},
+ {0.55078*TIM},{-0.3163*MAG},{0.55469*TIM},{-1.1946*MAG},{0.55859*TIM},{2.1339*MAG},{0.56250*TIM},{-1.0533*MAG},
+ {0.56641*TIM},{-1.0114*MAG},{0.57031*TIM},{0.3564*MAG},{0.57422*TIM},{1.0797*MAG},{0.57813*TIM},{0.5223*MAG},
+ {0.58203*TIM},{0.3435*MAG},{0.58594*TIM},{-0.1898*MAG},{0.58984*TIM},{0.2791*MAG},{0.59375*TIM},{-0.5193*MAG},
+ {0.59766*TIM},0
R3 2 3 1K
V3 3 2 PWL 0,0,{0.59766*TIM},0,
+ {0.60156*TIM},{-1.0840*MAG},{0.60547*TIM},{1.1279*MAG},{0.60938*TIM},{0.3543*MAG},
+ {0.61328*TIM},{0.0418*MAG},{0.61719*TIM},{-0.5031*MAG},{0.62109*TIM},{0.3237*MAG},{0.62500*TIM},{0.3709*MAG},
+ {0.62891*TIM},{-0.5407*MAG},{0.63281*TIM},{-0.9547*MAG},{0.63672*TIM},{0.0967*MAG},{0.64063*TIM},{1.1516*MAG},
+ {0.64453*TIM},{-1.2093*MAG},{0.64844*TIM},{-0.2246*MAG},{0.65234*TIM},{0.0067*MAG},{0.65625*TIM},{0.0412*MAG},
+ {0.66016*TIM},{0.7006*MAG},{0.66406*TIM},{1.9358*MAG},{0.66797*TIM},{1.3131*MAG},{0.67188*TIM},{1.5619*MAG},
+ {0.67578*TIM},{-0.9372*MAG},{0.67969*TIM},{-0.2519*MAG},{0.68359*TIM},{1.3671*MAG},{0.68750*TIM},{1.1272*MAG},
+ {0.69141*TIM},{-1.8603*MAG},{0.69531*TIM},{-0.1496*MAG},{0.69922*TIM},{-1.2891*MAG},{0.70313*TIM},{-1.3405*MAG},
+ {0.70703*TIM},{0.0475*MAG},{0.71094*TIM},{0.3145*MAG},{0.71484*TIM},{0.9046*MAG},{0.71875*TIM},{1.3417*MAG},
+ {0.72266*TIM},{-0.3305*MAG},{0.72656*TIM},{0.6052*MAG},{0.73047*TIM},{-0.8397*MAG},{0.73438*TIM},{-0.3824*MAG},
+ {0.73828*TIM},{1.2298*MAG},{0.74219*TIM},{0.3508*MAG},{0.74609*TIM},{1.6106*MAG},{0.75000*TIM},{-0.9066*MAG},
+ {0.75391*TIM},{1.4710*MAG},{0.75781*TIM},{-0.0688*MAG},{0.76172*TIM},{-0.0418*MAG},{0.76563*TIM},{2.1265*MAG},
+ {0.76953*TIM},{1.1613*MAG},{0.77344*TIM},{1.6203*MAG},{0.77734*TIM},{0.6301*MAG},{0.78125*TIM},{0.6481*MAG},
+ {0.78516*TIM},{-0.0186*MAG},{0.78906*TIM},{0.2250*MAG},{0.79297*TIM},{-0.9435*MAG},{0.79688*TIM},{0.5864*MAG},
+ {0.80078*TIM},{-0.8974*MAG},{0.80469*TIM},{2.1982*MAG},{0.80859*TIM},{0.7285*MAG},{0.81250*TIM},{-0.1436*MAG},
+ {0.81641*TIM},{-0.0540*MAG},{0.82031*TIM},{-0.9953*MAG},{0.82422*TIM},{-0.8265*MAG},{0.82813*TIM},{-0.6348*MAG},
+ {0.83203*TIM},{-0.2880*MAG},{0.83594*TIM},{0.3225*MAG},{0.83984*TIM},{0.6456*MAG},{0.84375*TIM},{-1.8822*MAG},
+ {0.84766*TIM},{0.0577*MAG},{0.85156*TIM},{0.9223*MAG},{0.85547*TIM},{-0.6901*MAG},{0.85938*TIM},{0.5180*MAG},
+ {0.86328*TIM},{-1.6958*MAG},{0.86719*TIM},{1.0638*MAG},{0.87109*TIM},{-0.4255*MAG},{0.87500*TIM},{1.5065*MAG},
+ {0.87891*TIM},{1.5863*MAG},{0.88281*TIM},{1.3912*MAG},{0.88672*TIM},{0.5911*MAG},{0.89063*TIM},{-1.1828*MAG},
+ {0.89453*TIM},0
R4 3 4 1K
V4 4 3 PWL 0,0,{0.89453*TIM},0,
+ {0.89844*TIM},{0.8536*MAG},{0.90234*TIM},{0.2784*MAG},{0.90625*TIM},{0.2294*MAG},
+ {0.91016*TIM},{1.0830*MAG},{0.91406*TIM},{0.2626*MAG},{0.91797*TIM},{0.7740*MAG},{0.92188*TIM},{-0.6220*MAG},
+ {0.92578*TIM},{-0.4696*MAG},{0.92969*TIM},{1.1623*MAG},{0.93359*TIM},{1.4113*MAG},{0.93750*TIM},{1.3678*MAG},
+ {0.94141*TIM},{0.0619*MAG},{0.94531*TIM},{1.1084*MAG},{0.94922*TIM},{0.8434*MAG},{0.95313*TIM},{0.4348*MAG},
+ {0.95703*TIM},{0.3109*MAG},{0.96094*TIM},{0.3236*MAG},{0.96484*TIM},{-1.0186*MAG},{0.96875*TIM},{0.5638*MAG},
+ {0.97266*TIM},{0.8976*MAG},{0.97656*TIM},{1.2992*MAG},{0.98047*TIM},{-1.2669*MAG},{0.98438*TIM},{0.6063*MAG},
+ {0.98828*TIM},{-0.6193*MAG},{0.99219*TIM},{0.3300*MAG},{0.99609*TIM},{-0.2600*MAG},
.ENDS
**********
*SRC=RAN2;RAN2;!Generators;Signal;Random Noise 128 Points
*SYM=RAN2
*HELP issyntax.hlp "Random Noise - RANDOM.LIB"
.SUBCKT RAN2 2 {TIM=??? MAG=???}
*Parameters:
* TIM Total time for the source to be active, usually equal to Tstop (total analysis time
* MAG RMS Amplitude for the signal in Volts
R1 0 1 1K
V1 1 0 PWL 0,{1.1416*MAG},{0.00781*TIM},{-0.2194*MAG},
+ {0.01563*TIM},{1.4780*MAG},{0.02344*TIM},{0.4418*MAG},{0.03125*TIM},{-0.0179*MAG},
+ {0.03906*TIM},{-0.0024*MAG},{0.04688*TIM},{-0.3875*MAG},{0.05469*TIM},{-0.4229*MAG},{0.06250*TIM},{0.2939*MAG},
+ {0.07031*TIM},{1.2247*MAG},{0.07813*TIM},{-0.0797*MAG},{0.08594*TIM},{-0.3892*MAG},{0.09375*TIM},{0.7852*MAG},
+ {0.10156*TIM},{-0.7254*MAG},{0.10938*TIM},{0.1638*MAG},{0.11719*TIM},{0.2181*MAG},{0.12500*TIM},{0.7112*MAG},
+ {0.13281*TIM},{0.1141*MAG},{0.14063*TIM},{-0.7524*MAG},{0.14844*TIM},{0.5142*MAG},{0.15625*TIM},{0.0890*MAG},
+ {0.16406*TIM},{-2.9705*MAG},{0.17188*TIM},{-1.0824*MAG},{0.17969*TIM},{1.4442*MAG},{0.18750*TIM},{-0.6614*MAG},
+ {0.19531*TIM},{0.0349*MAG},{0.20313*TIM},{1.0377*MAG},{0.21094*TIM},{1.1942*MAG},{0.21875*TIM},{-1.3731*MAG},
+ {0.22656*TIM},{-1.3108*MAG},{0.23438*TIM},{-0.5789*MAG},{0.24219*TIM},{1.6671*MAG},{0.25000*TIM},{1.1508*MAG},
+ {0.25781*TIM},{-0.5920*MAG},{0.26563*TIM},{-0.6460*MAG},{0.27344*TIM},{0.0116*MAG},{0.28125*TIM},{-0.5815*MAG},
+ {0.28906*TIM},{-0.4894*MAG},{0.29688*TIM},{2.3024*MAG},{0.30469*TIM},{1.0654*MAG},{0.31250*TIM},{0.4563*MAG},
+ {0.32031*TIM},{0.4081*MAG},{0.32813*TIM},{-0.3834*MAG},{0.33594*TIM},{0.9765*MAG},{0.34375*TIM},{0.7558*MAG},
+ {0.35156*TIM},{2.3355*MAG},{0.35938*TIM},{-0.4977*MAG},{0.36719*TIM},{0.7324*MAG},{0.37500*TIM},{-1.1227*MAG},
+ {0.38281*TIM},{1.2515*MAG},{0.39063*TIM},{2.4316*MAG},{0.39844*TIM},{-0.0277*MAG},{0.40625*TIM},{0.6714*MAG},
+ {0.41406*TIM},{-0.5914*MAG},{0.42188*TIM},{-1.3232*MAG},{0.42969*TIM},{-1.2754*MAG},{0.43750*TIM},{0.0923*MAG},
+ {0.44531*TIM},{-1.1075*MAG},{0.45313*TIM},{1.4823*MAG},{0.46094*TIM},{-0.2466*MAG},{0.46875*TIM},{0.4658*MAG},
+ {0.47656*TIM},{-0.0176*MAG},{0.48438*TIM},{2.2360*MAG},{0.49219*TIM},{0.8392*MAG},{0.50000*TIM},{1.1983*MAG},
+ {0.50781*TIM},{-0.9520*MAG},{0.51563*TIM},{0.5829*MAG},{0.52344*TIM},{-0.1219*MAG},{0.53125*TIM},{-0.3692*MAG},
+ {0.53906*TIM},{0.2608*MAG},{0.54688*TIM},{-1.3429*MAG},{0.55469*TIM},{-0.8438*MAG},{0.56250*TIM},{0.9330*MAG},
+ {0.57031*TIM},{-1.8074*MAG},{0.57813*TIM},{0.1695*MAG},{0.58594*TIM},{0.4216*MAG},{0.59375*TIM},{-0.1741*MAG},
+ {0.60156*TIM},0
R2 1 2 1K
V2 2 1 PWL 0,0,{0.60156*TIM},0,
+ {0.60938*TIM},{-0.2167*MAG},{0.61719*TIM},{-1.4440*MAG},{0.62500*TIM},{-0.7339*MAG},
+ {0.63281*TIM},{0.6562*MAG},{0.64063*TIM},{-0.9815*MAG},{0.64844*TIM},{-0.0823*MAG},{0.65625*TIM},{-1.6106*MAG},
+ {0.66406*TIM},{-0.8978*MAG},{0.67188*TIM},{-1.0364*MAG},{0.67969*TIM},{-1.9069*MAG},{0.68750*TIM},{0.5725*MAG},
+ {0.69531*TIM},{0.6233*MAG},{0.70313*TIM},{0.2342*MAG},{0.71094*TIM},{-1.7046*MAG},{0.71875*TIM},{-0.8336*MAG},
+ {0.72656*TIM},{1.0796*MAG},{0.73438*TIM},{0.7707*MAG},{0.74219*TIM},{1.1149*MAG},{0.75000*TIM},{-0.0772*MAG},
+ {0.75781*TIM},{-0.7217*MAG},{0.76563*TIM},{0.1751*MAG},{0.77344*TIM},{-1.2196*MAG},{0.78125*TIM},{0.7804*MAG},
+ {0.78906*TIM},{0.0156*MAG},{0.79688*TIM},{-0.6174*MAG},{0.80469*TIM},{-1.5264*MAG},{0.81250*TIM},{0.2689*MAG},
+ {0.82031*TIM},{-0.5004*MAG},{0.82813*TIM},{0.4434*MAG},{0.83594*TIM},{1.4365*MAG},{0.84375*TIM},{-0.9032*MAG},
+ {0.85156*TIM},{-0.7682*MAG},{0.85938*TIM},{0.1541*MAG},{0.86719*TIM},{1.3557*MAG},{0.87500*TIM},{-0.8116*MAG},
+ {0.88281*TIM},{-1.7411*MAG},{0.89063*TIM},{0.0761*MAG},{0.89844*TIM},{-1.1696*MAG},{0.90625*TIM},{0.1927*MAG},
+ {0.91406*TIM},{-0.6364*MAG},{0.92188*TIM},{0.1684*MAG},{0.92969*TIM},{-0.0064*MAG},{0.93750*TIM},{0.8327*MAG},
+ {0.94531*TIM},{0.4896*MAG},{0.95313*TIM},{-0.5166*MAG},{0.96094*TIM},{0.2070*MAG},{0.96875*TIM},{-0.3216*MAG},
+ {0.97656*TIM},{0.7014*MAG},{0.98438*TIM},{0.1040*MAG},{0.99219*TIM},{-0.3296*MAG},
.ENDS
**********
*SRC=RAN3;RAN3;!Generators;Signal;Random Noise 128 Points
*SYM=RAN3
*HELP issyntax.hlp "Random Noise - RANDOM.LIB"
.SUBCKT RAN3 2 {TIM=??? MAG=???}
*Parameters:
* TIM Total time for the source to be active, usually equal to Tstop (total analysis time
* MAG RMS Amplitude for the signal in Volts
R1 0 1 1K
V1 1 0 PWL 0,{-1.0971*MAG},{0.00781*TIM},{0.7888*MAG},
+ {0.01563*TIM},{0.0936*MAG},{0.02344*TIM},{-0.8047*MAG},{0.03125*TIM},{-0.2513*MAG},
+ {0.03906*TIM},{-1.9083*MAG},{0.04688*TIM},{0.4112*MAG},{0.05469*TIM},{0.0249*MAG},{0.06250*TIM},{0.3845*MAG},
+ {0.07031*TIM},{-0.3563*MAG},{0.07813*TIM},{-0.3022*MAG},{0.08594*TIM},{0.1028*MAG},{0.09375*TIM},{-2.9138*MAG},
+ {0.10156*TIM},{-0.6720*MAG},{0.10938*TIM},{1.1803*MAG},{0.11719*TIM},{-0.8285*MAG},{0.12500*TIM},{-0.5873*MAG},
+ {0.13281*TIM},{-1.5803*MAG},{0.14063*TIM},{-0.0414*MAG},{0.14844*TIM},{-0.6906*MAG},{0.15625*TIM},{0.0425*MAG},
+ {0.16406*TIM},{0.4017*MAG},{0.17188*TIM},{1.0316*MAG},{0.17969*TIM},{-0.1460*MAG},{0.18750*TIM},{-0.9204*MAG},
+ {0.19531*TIM},{0.8369*MAG},{0.20313*TIM},{1.2401*MAG},{0.21094*TIM},{0.5909*MAG},{0.21875*TIM},{0.3063*MAG},
+ {0.22656*TIM},{-1.4544*MAG},{0.23438*TIM},{-1.0245*MAG},{0.24219*TIM},{0.7322*MAG},{0.25000*TIM},{-1.1928*MAG},
+ {0.25781*TIM},{-0.1260*MAG},{0.26563*TIM},{-1.3789*MAG},{0.27344*TIM},{0.6726*MAG},{0.28125*TIM},{-0.6431*MAG},
+ {0.28906*TIM},{-0.3932*MAG},{0.29688*TIM},{-0.0585*MAG},{0.30469*TIM},{-0.6629*MAG},{0.31250*TIM},{0.5078*MAG},
+ {0.32031*TIM},{-0.8625*MAG},{0.32813*TIM},{0.2940*MAG},{0.33594*TIM},{-0.4042*MAG},{0.34375*TIM},{0.3338*MAG},
+ {0.35156*TIM},{-0.0710*MAG},{0.35938*TIM},{-0.5991*MAG},{0.36719*TIM},{-0.9486*MAG},{0.37500*TIM},{-0.0653*MAG},
+ {0.38281*TIM},{-0.2096*MAG},{0.39063*TIM},{-0.3432*MAG},{0.39844*TIM},{0.3474*MAG},{0.40625*TIM},{1.6148*MAG},
+ {0.41406*TIM},{0.2139*MAG},{0.42188*TIM},{1.6517*MAG},{0.42969*TIM},{-1.5082*MAG},{0.43750*TIM},{-1.9842*MAG},
+ {0.44531*TIM},{1.3309*MAG},{0.45313*TIM},{1.9325*MAG},{0.46094*TIM},{1.3704*MAG},{0.46875*TIM},{-1.1110*MAG},
+ {0.47656*TIM},{0.4867*MAG},{0.48438*TIM},{0.0902*MAG},{0.49219*TIM},{-0.3685*MAG},{0.50000*TIM},{-1.1065*MAG},
+ {0.50781*TIM},{0.0232*MAG},{0.51563*TIM},{2.1440*MAG},{0.52344*TIM},{-0.0184*MAG},{0.53125*TIM},{-0.0395*MAG},
+ {0.53906*TIM},{1.0508*MAG},{0.54688*TIM},{-1.5098*MAG},{0.55469*TIM},{-0.8696*MAG},{0.56250*TIM},{0.3048*MAG},
+ {0.57031*TIM},{0.8108*MAG},{0.57813*TIM},{-0.1784*MAG},{0.58594*TIM},{0.8614*MAG},{0.59375*TIM},{-0.2512*MAG},
+ {0.60156*TIM},0
R2 1 2 1K
V2 2 1 PWL 0,0,{0.60156*TIM},0,
+ {0.60938*TIM},{-0.8767*MAG},{0.61719*TIM},{0.1064*MAG},{0.62500*TIM},{1.1912*MAG},
+ {0.63281*TIM},{-0.9906*MAG},{0.64063*TIM},{-0.0294*MAG},{0.64844*TIM},{2.1703*MAG},{0.65625*TIM},{-1.6503*MAG},
+ {0.66406*TIM},{0.8693*MAG},{0.67188*TIM},{1.8986*MAG},{0.67969*TIM},{1.1859*MAG},{0.68750*TIM},{1.7506*MAG},
+ {0.69531*TIM},{-0.5416*MAG},{0.70313*TIM},{1.1587*MAG},{0.71094*TIM},{0.2273*MAG},{0.71875*TIM},{-0.2850*MAG},
+ {0.72656*TIM},{-1.0333*MAG},{0.73438*TIM},{1.4277*MAG},{0.74219*TIM},{-0.7807*MAG},{0.75000*TIM},{1.2716*MAG},
+ {0.75781*TIM},{-0.2741*MAG},{0.76563*TIM},{-0.0335*MAG},{0.77344*TIM},{0.0755*MAG},{0.78125*TIM},{0.9443*MAG},
+ {0.78906*TIM},{0.9110*MAG},{0.79688*TIM},{0.2410*MAG},{0.80469*TIM},{-0.3159*MAG},{0.81250*TIM},{0.0284*MAG},
+ {0.82031*TIM},{1.1385*MAG},{0.82813*TIM},{-0.4129*MAG},{0.83594*TIM},{-1.0189*MAG},{0.84375*TIM},{-1.2908*MAG},
+ {0.85156*TIM},{-0.0652*MAG},{0.85938*TIM},{-0.5997*MAG},{0.86719*TIM},{1.7013*MAG},{0.87500*TIM},{0.6584*MAG},
+ {0.88281*TIM},{0.4674*MAG},{0.89063*TIM},{-1.1848*MAG},{0.89844*TIM},{0.8947*MAG},{0.90625*TIM},{1.1820*MAG},
+ {0.91406*TIM},{0.2235*MAG},{0.92188*TIM},{0.1315*MAG},{0.92969*TIM},{1.3660*MAG},{0.93750*TIM},{-0.5372*MAG},
+ {0.94531*TIM},{2.2812*MAG},{0.95313*TIM},{1.0909*MAG},{0.96094*TIM},{-0.2131*MAG},{0.96875*TIM},{-1.6673*MAG},
+ {0.97656*TIM},{-1.0552*MAG},{0.98438*TIM},{-1.6279*MAG},{0.99219*TIM},{1.2780*MAG},
.ENDS
**********
*SRC=RAN5;RAN5;!Generators;Signal;Random Noise 512 Points
*SYM=RAN5
*HELP issyntax.hlp "Random Noise - RANDOM.LIB"
.SUBCKT RAN5 7 {TIM=??? MAG=???}
*Parameters:
* TIM Total time for the source to be active, usually equal to Tstop (total analysis time
* MAG RMS Amplitude for the signal in Volts
R1 0 1 1K
V1 1 0 PWL 0,{1.3053*MAG},{0.00195*TIM},{0.3546*MAG},
+ {0.00391*TIM},{-0.3858*MAG},{0.00586*TIM},{0.0141*MAG},{0.00781*TIM},{0.0093*MAG},
+ {0.00977*TIM},{1.1762*MAG},{0.01172*TIM},{-0.9373*MAG},{0.01367*TIM},{-0.7508*MAG},{0.01563*TIM},{-0.4146*MAG},
+ {0.01758*TIM},{-0.7167*MAG},{0.01953*TIM},{3.3370*MAG},{0.02148*TIM},{1.6135*MAG},{0.02344*TIM},{0.1238*MAG},
+ {0.02539*TIM},{-0.7667*MAG},{0.02734*TIM},{-1.5161*MAG},{0.02930*TIM},{-0.4569*MAG},{0.03125*TIM},{-0.4211*MAG},
+ {0.03320*TIM},{-1.5376*MAG},{0.03516*TIM},{0.1238*MAG},{0.03711*TIM},{2.0640*MAG},{0.03906*TIM},{-0.6090*MAG},
+ {0.04102*TIM},{0.9161*MAG},{0.04297*TIM},{1.2771*MAG},{0.04492*TIM},{-0.2214*MAG},{0.04688*TIM},{0.8447*MAG},
+ {0.04883*TIM},{-0.0410*MAG},{0.05078*TIM},{2.2232*MAG},{0.05273*TIM},{0.0745*MAG},{0.05469*TIM},{0.8241*MAG},
+ {0.05664*TIM},{1.4245*MAG},{0.05859*TIM},{-0.5103*MAG},{0.06055*TIM},{1.3887*MAG},{0.06250*TIM},{-2.9207*MAG},
+ {0.06445*TIM},{0.1600*MAG},{0.06641*TIM},{-0.8716*MAG},{0.06836*TIM},{0.8714*MAG},{0.07031*TIM},{-0.1535*MAG},
+ {0.07227*TIM},{-0.7035*MAG},{0.07422*TIM},{-0.3585*MAG},{0.07617*TIM},{0.1595*MAG},{0.07813*TIM},{0.0674*MAG},
+ {0.08008*TIM},{-0.6171*MAG},{0.08203*TIM},{0.6713*MAG},{0.08398*TIM},{0.7838*MAG},{0.08594*TIM},{0.9992*MAG},
+ {0.08789*TIM},{-1.9225*MAG},{0.08984*TIM},{-1.2879*MAG},{0.09180*TIM},{0.0762*MAG},{0.09375*TIM},{0.2484*MAG},
+ {0.09570*TIM},{1.5754*MAG},{0.09766*TIM},{1.8753*MAG},{0.09961*TIM},{-1.1186*MAG},{0.10156*TIM},{2.6305*MAG},
+ {0.10352*TIM},{-1.6523*MAG},{0.10547*TIM},{0.5966*MAG},{0.10742*TIM},{0.5177*MAG},{0.10938*TIM},{-2.0955*MAG},
+ {0.11133*TIM},{0.6821*MAG},{0.11328*TIM},{-1.4941*MAG},{0.11523*TIM},{0.2996*MAG},{0.11719*TIM},{0.6327*MAG},
+ {0.11914*TIM},{-1.0437*MAG},{0.12109*TIM},{-0.4026*MAG},{0.12305*TIM},{2.7402*MAG},{0.12500*TIM},{1.5368*MAG},
+ {0.12695*TIM},{-0.1304*MAG},{0.12891*TIM},{0.9472*MAG},{0.13086*TIM},{-1.1089*MAG},{0.13281*TIM},{0.4395*MAG},
+ {0.13477*TIM},{-0.5336*MAG},{0.13672*TIM},{-1.1321*MAG},{0.13867*TIM},{-1.1547*MAG},{0.14063*TIM},{-2.0349*MAG},
+ {0.14258*TIM},{-0.1119*MAG},{0.14453*TIM},{-0.2083*MAG},{0.14648*TIM},{0.1998*MAG},{0.14844*TIM},{-1.9637*MAG},
+ {0.15039*TIM},0
R2 1 2 1K
V2 2 1 PWL 0,0,{0.15039*TIM},0,
+ {0.15234*TIM},{0.6648*MAG},{0.15430*TIM},{0.3261*MAG},{0.15625*TIM},{-0.3403*MAG},
+ {0.15820*TIM},{1.4421*MAG},{0.16016*TIM},{0.0182*MAG},{0.16211*TIM},{-0.9671*MAG},{0.16406*TIM},{0.4374*MAG},
+ {0.16602*TIM},{-0.1182*MAG},{0.16797*TIM},{-0.6156*MAG},{0.16992*TIM},{-0.6854*MAG},{0.17188*TIM},{0.4992*MAG},
+ {0.17383*TIM},{2.0229*MAG},{0.17578*TIM},{-0.0892*MAG},{0.17773*TIM},{0.8719*MAG},{0.17969*TIM},{-0.5679*MAG},
+ {0.18164*TIM},{0.2112*MAG},{0.18359*TIM},{2.1211*MAG},{0.18555*TIM},{0.3333*MAG},{0.18750*TIM},{-0.6801*MAG},
+ {0.18945*TIM},{0.7539*MAG},{0.19141*TIM},{-0.1234*MAG},{0.19336*TIM},{1.1531*MAG},{0.19531*TIM},{0.8433*MAG},
+ {0.19727*TIM},{0.4908*MAG},{0.19922*TIM},{0.1564*MAG},{0.20117*TIM},{-0.1167*MAG},{0.20313*TIM},{-1.2611*MAG},
+ {0.20508*TIM},{0.6944*MAG},{0.20703*TIM},{-1.2560*MAG},{0.20898*TIM},{0.4216*MAG},{0.21094*TIM},{-0.4915*MAG},
+ {0.21289*TIM},{0.2133*MAG},{0.21484*TIM},{-0.2713*MAG},{0.21680*TIM},{0.0467*MAG},{0.21875*TIM},{-0.1245*MAG},
+ {0.22070*TIM},{0.1250*MAG},{0.22266*TIM},{0.8918*MAG},{0.22461*TIM},{0.8467*MAG},{0.22656*TIM},{-0.7468*MAG},
+ {0.22852*TIM},{1.1432*MAG},{0.23047*TIM},{1.1252*MAG},{0.23242*TIM},{-0.9640*MAG},{0.23438*TIM},{-0.3478*MAG},
+ {0.23633*TIM},{-0.8245*MAG},{0.23828*TIM},{1.0289*MAG},{0.24023*TIM},{1.4700*MAG},{0.24219*TIM},{0.1894*MAG},
+ {0.24414*TIM},{-0.5308*MAG},{0.24609*TIM},{-1.3187*MAG},{0.24805*TIM},{-0.0784*MAG},{0.25000*TIM},{-1.1304*MAG},
+ {0.25195*TIM},{-0.3320*MAG},{0.25391*TIM},{-1.7927*MAG},{0.25586*TIM},{-0.5310*MAG},{0.25781*TIM},{0.4769*MAG},
+ {0.25977*TIM},{0.9601*MAG},{0.26172*TIM},{0.0964*MAG},{0.26367*TIM},{2.1554*MAG},{0.26563*TIM},{1.1619*MAG},
+ {0.26758*TIM},{1.2145*MAG},{0.26953*TIM},{1.8368*MAG},{0.27148*TIM},{0.9915*MAG},{0.27344*TIM},{-0.3209*MAG},
+ {0.27539*TIM},{-1.7698*MAG},{0.27734*TIM},{0.9349*MAG},{0.27930*TIM},{-0.7710*MAG},{0.28125*TIM},{-0.2114*MAG},
+ {0.28320*TIM},{-0.9464*MAG},{0.28516*TIM},{-0.3345*MAG},{0.28711*TIM},{0.7685*MAG},{0.28906*TIM},{0.1441*MAG},
+ {0.29102*TIM},{-0.7416*MAG},{0.29297*TIM},{0.9164*MAG},{0.29492*TIM},{-0.7505*MAG},{0.29688*TIM},{-2.3764*MAG},
+ {0.29883*TIM},0
R3 2 3 1K
V3 3 2 PWL 0,0,{0.29883*TIM},0,
+ {0.30078*TIM},{-0.4313*MAG},{0.30273*TIM},{-0.4460*MAG},{0.30469*TIM},{-1.0243*MAG},
+ {0.30664*TIM},{-0.0811*MAG},{0.30859*TIM},{0.3844*MAG},{0.31055*TIM},{-1.2770*MAG},{0.31250*TIM},{0.9236*MAG},
+ {0.31445*TIM},{-0.2107*MAG},{0.31641*TIM},{-0.9470*MAG},{0.31836*TIM},{2.4241*MAG},{0.32031*TIM},{-0.2041*MAG},
+ {0.32227*TIM},{-1.0339*MAG},{0.32422*TIM},{1.1411*MAG},{0.32617*TIM},{0.7362*MAG},{0.32813*TIM},{0.1818*MAG},
+ {0.33008*TIM},{1.0428*MAG},{0.33203*TIM},{-1.7239*MAG},{0.33398*TIM},{0.3500*MAG},{0.33594*TIM},{-1.3682*MAG},
+ {0.33789*TIM},{-0.2353*MAG},{0.33984*TIM},{-0.4954*MAG},{0.34180*TIM},{0.6086*MAG},{0.34375*TIM},{2.2448*MAG},
+ {0.34570*TIM},{-0.0970*MAG},{0.34766*TIM},{-0.7165*MAG},{0.34961*TIM},{-0.7773*MAG},{0.35156*TIM},{0.4959*MAG},
+ {0.35352*TIM},{-1.1431*MAG},{0.35547*TIM},{-0.5614*MAG},{0.35742*TIM},{-0.1105*MAG},{0.35938*TIM},{0.7865*MAG},
+ {0.36133*TIM},{-0.1926*MAG},{0.36328*TIM},{0.6799*MAG},{0.36523*TIM},{0.6562*MAG},{0.36719*TIM},{-1.1923*MAG},
+ {0.36914*TIM},{-0.4664*MAG},{0.37109*TIM},{0.0216*MAG},{0.37305*TIM},{2.5153*MAG},{0.37500*TIM},{-0.2586*MAG},
+ {0.37695*TIM},{-0.8034*MAG},{0.37891*TIM},{1.2794*MAG},{0.38086*TIM},{2.5592*MAG},{0.38281*TIM},{-0.0683*MAG},
+ {0.38477*TIM},{1.1695*MAG},{0.38672*TIM},{0.6009*MAG},{0.38867*TIM},{0.4445*MAG},{0.39063*TIM},{-0.4593*MAG},
+ {0.39258*TIM},{1.1395*MAG},{0.39453*TIM},{-0.6531*MAG},{0.39648*TIM},{-0.5210*MAG},{0.39844*TIM},{0.7633*MAG},
+ {0.40039*TIM},{-2.2658*MAG},{0.40234*TIM},{0.1660*MAG},{0.40430*TIM},{0.2381*MAG},{0.40625*TIM},{-1.5917*MAG},
+ {0.40820*TIM},{0.6073*MAG},{0.41016*TIM},{0.2496*MAG},{0.41211*TIM},{-1.2481*MAG},{0.41406*TIM},{0.4726*MAG},
+ {0.41602*TIM},{-0.7061*MAG},{0.41797*TIM},{-0.4944*MAG},{0.41992*TIM},{-0.8626*MAG},{0.42188*TIM},{-0.8675*MAG},
+ {0.42383*TIM},{0.0208*MAG},{0.42578*TIM},{0.1943*MAG},{0.42773*TIM},{0.2211*MAG},{0.42969*TIM},{-1.6947*MAG},
+ {0.43164*TIM},{-0.7822*MAG},{0.43359*TIM},{0.1484*MAG},{0.43555*TIM},{0.8768*MAG},{0.43750*TIM},{0.9883*MAG},
+ {0.43945*TIM},{0.0628*MAG},{0.44141*TIM},{-0.8707*MAG},{0.44336*TIM},{1.1269*MAG},{0.44531*TIM},{0.5984*MAG},
+ {0.44727*TIM},0
R4 3 4 1K
V4 4 3 PWL 0,0,{0.44727*TIM},0,
+ {0.44922*TIM},{-0.9812*MAG},{0.45117*TIM},{-0.6348*MAG},{0.45313*TIM},{-0.7342*MAG},
+ {0.45508*TIM},{-0.0565*MAG},{0.45703*TIM},{-0.4356*MAG},{0.45898*TIM},{1.1467*MAG},{0.46094*TIM},{-1.6282*MAG},
+ {0.46289*TIM},{-1.5210*MAG},{0.46484*TIM},{-1.2410*MAG},{0.46680*TIM},{0.5204*MAG},{0.46875*TIM},{-0.1672*MAG},
+ {0.47070*TIM},{0.4216*MAG},{0.47266*TIM},{-0.8930*MAG},{0.47461*TIM},{0.1674*MAG},{0.47656*TIM},{-0.7220*MAG},
+ {0.47852*TIM},{-1.6104*MAG},{0.48047*TIM},{-0.8963*MAG},{0.48242*TIM},{0.2525*MAG},{0.48438*TIM},{-0.2158*MAG},
+ {0.48633*TIM},{-0.0823*MAG},{0.48828*TIM},{-0.3829*MAG},{0.49023*TIM},{-0.3974*MAG},{0.49219*TIM},{0.4265*MAG},
+ {0.49414*TIM},{-0.1972*MAG},{0.49609*TIM},{0.6496*MAG},{0.49805*TIM},{-0.0730*MAG},{0.50000*TIM},{-0.7450*MAG},
+ {0.50195*TIM},{1.0058*MAG},{0.50391*TIM},{1.1660*MAG},{0.50586*TIM},{-0.5073*MAG},{0.50781*TIM},{1.2973*MAG},
+ {0.50977*TIM},{-0.5455*MAG},{0.51172*TIM},{-0.0664*MAG},{0.51367*TIM},{1.8110*MAG},{0.51563*TIM},{0.7105*MAG},
+ {0.51758*TIM},{0.0057*MAG},{0.51953*TIM},{1.6159*MAG},{0.52148*TIM},{0.9301*MAG},{0.52344*TIM},{-0.3744*MAG},
+ {0.52539*TIM},{1.6764*MAG},{0.52734*TIM},{-1.1299*MAG},{0.52930*TIM},{1.4554*MAG},{0.53125*TIM},{0.6452*MAG},
+ {0.53320*TIM},{-1.1418*MAG},{0.53516*TIM},{-0.1700*MAG},{0.53711*TIM},{-0.7314*MAG},{0.53906*TIM},{1.1628*MAG},
+ {0.54102*TIM},{1.1116*MAG},{0.54297*TIM},{-0.4590*MAG},{0.54492*TIM},{0.9874*MAG},{0.54688*TIM},{0.0882*MAG},
+ {0.54883*TIM},{0.1086*MAG},{0.55078*TIM},{-1.0088*MAG},{0.55273*TIM},{0.2698*MAG},{0.55469*TIM},{0.0269*MAG},
+ {0.55664*TIM},{0.4894*MAG},{0.55859*TIM},{-0.6002*MAG},{0.56055*TIM},{1.9993*MAG},{0.56250*TIM},{0.4550*MAG},
+ {0.56445*TIM},{1.3009*MAG},{0.56641*TIM},{-2.2665*MAG},{0.56836*TIM},{-0.8945*MAG},{0.57031*TIM},{1.7112*MAG},
+ {0.57227*TIM},{-0.8362*MAG},{0.57422*TIM},{0.4057*MAG},{0.57617*TIM},{-1.4230*MAG},{0.57813*TIM},{-0.2511*MAG},
+ {0.58008*TIM},{-0.8169*MAG},{0.58203*TIM},{-1.4156*MAG},{0.58398*TIM},{-2.1372*MAG},{0.58594*TIM},{-1.0277*MAG},
+ {0.58789*TIM},{0.3454*MAG},{0.58984*TIM},{-1.0536*MAG},{0.59180*TIM},{-0.1090*MAG},{0.59375*TIM},{-1.1660*MAG},
+ {0.59570*TIM},0
R5 4 5 1K
V5 5 4 PWL 0,0,{0.59570*TIM},0,
+ {0.59766*TIM},{1.0221*MAG},{0.59961*TIM},{1.4999*MAG},{0.60156*TIM},{0.3337*MAG},
+ {0.60352*TIM},{-0.7412*MAG},{0.60547*TIM},{-0.9539*MAG},{0.60742*TIM},{0.3561*MAG},{0.60938*TIM},{-0.9761*MAG},
+ {0.61133*TIM},{-0.1044*MAG},{0.61328*TIM},{0.7311*MAG},{0.61523*TIM},{0.2329*MAG},{0.61719*TIM},{-0.1994*MAG},
+ {0.61914*TIM},{-1.5448*MAG},{0.62109*TIM},{0.1956*MAG},{0.62305*TIM},{0.9240*MAG},{0.62500*TIM},{0.6319*MAG},
+ {0.62695*TIM},{0.5640*MAG},{0.62891*TIM},{-1.5460*MAG},{0.63086*TIM},{-0.0801*MAG},{0.63281*TIM},{0.8260*MAG},
+ {0.63477*TIM},{0.8750*MAG},{0.63672*TIM},{0.9549*MAG},{0.63867*TIM},{0.0090*MAG},{0.64063*TIM},{-0.2324*MAG},
+ {0.64258*TIM},{1.7493*MAG},{0.64453*TIM},{-1.4035*MAG},{0.64648*TIM},{1.1086*MAG},{0.64844*TIM},{-1.1724*MAG},
+ {0.65039*TIM},{-0.3141*MAG},{0.65234*TIM},{-0.5471*MAG},{0.65430*TIM},{2.1867*MAG},{0.65625*TIM},{0.3673*MAG},
+ {0.65820*TIM},{-0.9903*MAG},{0.66016*TIM},{0.3367*MAG},{0.66211*TIM},{0.8272*MAG},{0.66406*TIM},{2.2407*MAG},
+ {0.66602*TIM},{1.3582*MAG},{0.66797*TIM},{0.0184*MAG},{0.66992*TIM},{0.6822*MAG},{0.67188*TIM},{1.6742*MAG},
+ {0.67383*TIM},{-0.1923*MAG},{0.67578*TIM},{-0.9801*MAG},{0.67773*TIM},{-0.1439*MAG},{0.67969*TIM},{-0.1216*MAG},
+ {0.68164*TIM},{-0.3810*MAG},{0.68359*TIM},{0.1852*MAG},{0.68555*TIM},{-0.1799*MAG},{0.68750*TIM},{-0.3678*MAG},
+ {0.68945*TIM},{-0.8310*MAG},{0.69141*TIM},{0.9939*MAG},{0.69336*TIM},{-0.4838*MAG},{0.69531*TIM},{0.0250*MAG},
+ {0.69727*TIM},{-0.1982*MAG},{0.69922*TIM},{0.4962*MAG},{0.70117*TIM},{1.8207*MAG},{0.70313*TIM},{-0.3673*MAG},
+ {0.70508*TIM},{-0.3023*MAG},{0.70703*TIM},{-0.2667*MAG},{0.70898*TIM},{-0.1819*MAG},{0.71094*TIM},{0.0782*MAG},
+ {0.71289*TIM},{0.0157*MAG},{0.71484*TIM},{-0.7274*MAG},{0.71680*TIM},{0.3502*MAG},{0.71875*TIM},{-1.5254*MAG},
+ {0.72070*TIM},{-2.2056*MAG},{0.72266*TIM},{-1.0670*MAG},{0.72461*TIM},{0.0387*MAG},{0.72656*TIM},{1.5367*MAG},
+ {0.72852*TIM},{2.0373*MAG},{0.73047*TIM},{1.4724*MAG},{0.73242*TIM},{1.5441*MAG},{0.73438*TIM},{-0.0151*MAG},
+ {0.73633*TIM},{-0.4847*MAG},{0.73828*TIM},{-0.2863*MAG},{0.74023*TIM},{0.7235*MAG},{0.74219*TIM},{-0.0405*MAG},
+ {0.74414*TIM},0
R6 5 6 1K
V6 6 5 PWL 0,0,{0.74414*TIM},0,
+ {0.74609*TIM},{-0.3699*MAG},{0.74805*TIM},{-0.1600*MAG},{0.75000*TIM},{1.3308*MAG},
+ {0.75195*TIM},{0.5425*MAG},{0.75391*TIM},{0.2832*MAG},{0.75586*TIM},{0.2708*MAG},{0.75781*TIM},{-0.1094*MAG},
+ {0.75977*TIM},{-1.6836*MAG},{0.76172*TIM},{-0.5989*MAG},{0.76367*TIM},{0.2850*MAG},{0.76563*TIM},{1.5993*MAG},
+ {0.76758*TIM},{0.7406*MAG},{0.76953*TIM},{-0.1145*MAG},{0.77148*TIM},{-0.3055*MAG},{0.77344*TIM},{-1.4558*MAG},
+ {0.77539*TIM},{1.0508*MAG},{0.77734*TIM},{0.8741*MAG},{0.77930*TIM},{-1.1402*MAG},{0.78125*TIM},{-1.1440*MAG},
+ {0.78320*TIM},{0.3702*MAG},{0.78516*TIM},{-0.7249*MAG},{0.78711*TIM},{-0.6035*MAG},{0.78906*TIM},{0.4546*MAG},
+ {0.79102*TIM},{1.9075*MAG},{0.79297*TIM},{0.9772*MAG},{0.79492*TIM},{1.1458*MAG},{0.79688*TIM},{-0.6325*MAG},
+ {0.79883*TIM},{-1.0215*MAG},{0.80078*TIM},{-0.0975*MAG},{0.80273*TIM},{1.2214*MAG},{0.80469*TIM},{0.6257*MAG},
+ {0.80664*TIM},{0.9472*MAG},{0.80859*TIM},{1.1694*MAG},{0.81055*TIM},{-0.2335*MAG},{0.81250*TIM},{0.4342*MAG},
+ {0.81445*TIM},{0.0232*MAG},{0.81641*TIM},{1.0002*MAG},{0.81836*TIM},{-0.7254*MAG},{0.82031*TIM},{-2.0622*MAG},
+ {0.82227*TIM},{0.3553*MAG},{0.82422*TIM},{0.4028*MAG},{0.82617*TIM},{0.2667*MAG},{0.82813*TIM},{-0.3619*MAG},
+ {0.83008*TIM},{-0.5256*MAG},{0.83203*TIM},{0.2482*MAG},{0.83398*TIM},{0.5883*MAG},{0.83594*TIM},{1.0037*MAG},
+ {0.83789*TIM},{1.3384*MAG},{0.83984*TIM},{1.3071*MAG},{0.84180*TIM},{0.2717*MAG},{0.84375*TIM},{-0.2506*MAG},
+ {0.84570*TIM},{0.2564*MAG},{0.84766*TIM},{0.7986*MAG},{0.84961*TIM},{0.1247*MAG},{0.85156*TIM},{-1.0290*MAG},
+ {0.85352*TIM},{1.2181*MAG},{0.85547*TIM},{1.2243*MAG},{0.85742*TIM},{0.3073*MAG},{0.85938*TIM},{-0.5513*MAG},
+ {0.86133*TIM},{0.5898*MAG},{0.86328*TIM},{0.0750*MAG},{0.86523*TIM},{-0.6382*MAG},{0.86719*TIM},{-1.0658*MAG},
+ {0.86914*TIM},{0.8052*MAG},{0.87109*TIM},{-0.5843*MAG},{0.87305*TIM},{0.6256*MAG},{0.87500*TIM},{-1.1679*MAG},
+ {0.87695*TIM},{-1.5454*MAG},{0.87891*TIM},{-1.2640*MAG},{0.88086*TIM},{0.1068*MAG},{0.88281*TIM},{-2.1539*MAG},
+ {0.88477*TIM},{-0.1532*MAG},{0.88672*TIM},{1.0371*MAG},{0.88867*TIM},{-0.7728*MAG},{0.89063*TIM},{-0.8146*MAG},
+ {0.89258*TIM},0
R7 6 7 1K
V7 7 6 PWL 0,0,{0.89258*TIM},0,
+ {0.89453*TIM},{0.8442*MAG},{0.89648*TIM},{0.0591*MAG},{0.89844*TIM},{2.4081*MAG},
+ {0.90039*TIM},{0.8217*MAG},{0.90234*TIM},{1.4661*MAG},{0.90430*TIM},{0.2673*MAG},{0.90625*TIM},{0.0753*MAG},
+ {0.90820*TIM},{0.2018*MAG},{0.91016*TIM},{-2.2244*MAG},{0.91211*TIM},{1.2387*MAG},{0.91406*TIM},{0.7299*MAG},
+ {0.91602*TIM},{-2.0615*MAG},{0.91797*TIM},{0.7369*MAG},{0.91992*TIM},{0.3788*MAG},{0.92188*TIM},{-0.6836*MAG},
+ {0.92383*TIM},{1.0541*MAG},{0.92578*TIM},{-0.2506*MAG},{0.92773*TIM},{-0.8083*MAG},{0.92969*TIM},{3.1566*MAG},
+ {0.93164*TIM},{-0.5842*MAG},{0.93359*TIM},{0.0591*MAG},{0.93555*TIM},{-0.0627*MAG},{0.93750*TIM},{-0.6395*MAG},
+ {0.93945*TIM},{-0.7087*MAG},{0.94141*TIM},{0.2586*MAG},{0.94336*TIM},{-2.3891*MAG},{0.94531*TIM},{0.4710*MAG},
+ {0.94727*TIM},{1.9161*MAG},{0.94922*TIM},{0.2316*MAG},{0.95117*TIM},{1.6321*MAG},{0.95313*TIM},{2.1576*MAG},