**********
**** Copyright Intusoft 1990-1997 ****
*    All Rights Reserved
*    RF Device Library Version 3.0
*    7/29/93
**********
*SRC=MRF873;MRF873;BJTs NPN;RF;15W 870MegHz
*SYM=RFNBJT
* MOTOROLA MRF873  15W 870MEGHZ
.SUBCKT MRF873 1 2 3
LC 1 4 0.50E-9
LB 2 6 0.60E-9
LE 5 3 0.07E-9
CC 4 3 15.0E-12
CB 4 6 1.00E-12
Q1 4 6 5 QR01
.MODEL QR01 NPN (BF=98 VAF=150 VAR=10.0 RC=.15 RB=1.43
+RE=.26 IKF=1.0 ISE=7.6E-14 TF=1.2E-11
+TR=1.7E-09 ITF=1.7 VTF=5.3 CJC=10.7E-12
+CJE=12E-12 XTI=3.0 NE=1.5 ISC=2.4E-14 EG=1.11 PTF=23
+XTB=1.5 BR=2.29 VJC=0.75 VJE=0.75 IS=8E-15
+MJC=0.33 MJE=0.33 XTF=4.0 IKR=0.5 KF=1E-15
+NC=1.7 FC=0.50 RBM=1.02 IRB=1.60E-02 XCJC=0.5)
.ENDS
**********
*SRC=BFR90;BFR90;BJTs NPN;RF;10V 10mA
*SYM=RFNBJT
* MOTOROLA BFR90  10 V  10 MA
.SUBCKT BFR90 1 2 3
LC 1 4 0.136E-9
LB 2 6 1.081E-9
LE 5 3 2.125E-9
CC 4 5 0.193E-12
CB 4 6 0.167E-12
Q1 4 6 5 QR01
.MODEL QR01 NPN ( BF=101  VAF=120  VAR=12.0  RC=5.86 RB=4.14
+RE=.144  IKF=0.21E-01  ISE=0.27E-14  TF=0.178E-10
+TR=0.13E-08  ITF=0.19E-01  VTF=0.50E+01  CJC=0.713E-12
+CJE=0.561E-12  XTI=3.0  NE=1.5  ISC=0.90E-15  EG=1.11
+XTB=1.5  BR=2.63  VJC=0.75  VJE=0.75  IS=0.30E-15
+MJC=0.33  MJE=0.33  XTF=4.0  IKR=0.21E-01  KF=0.1E-14
+NC=1.7  FC=0.50  RBM=2.9  IRB=0.30E-02  XCJC=0.5 )
.ENDS
**********
*SRC=BFR91;BFR91;BJTs NPN;RF;10V 10mA
*SYM=RFNBJT
* MOTOROLA BFR91  10 V  10 MA
.SUBCKT BFR91 1 2 3
LC 1 4 0.109E-9
LB 2 6 1.540E-9
LE 5 3 1.980E-9
CC 4 5 0.194E-12
CB 4 6 0.150E-12
Q1 4 6 5 QR02
.MODEL QR02 NPN ( BF=101  VAF=96  VAR=9.6  RC=9 RB=5
+RE=.149  IKF=0.25E-01  ISE=0.32E-14  TF=0.178E-10
+TR=0.13E-08  ITF=0.40E-01  VTF=0.40E+01  CJC=1.271E-12
+CJE=2.361E-12  XTI=3.0  NE=1.5  ISC=0.11E-14  EG=1.11
+XTB=1.5  BR=2.63  VJC=0.75  VJE=0.75  IS=0.35E-15
+MJC=0.33  MJE=0.33  XTF=4.0  IKR=0.25E-01  KF=0.1E-14
+NC=1.7  FC=0.50  RBM=3.5  IRB=0.35E-02  XCJC=0.5 )
.ENDS
**********
*SRC=BFR96;BFR96;BJTs NPN;RF;10V 25mA
*SYM=RFNBJT
* MOTOROLA BFR96  10 V  25 MA
.SUBCKT BFR96 1 2 3
LC 1 4 0.536E-9
LB 2 6 2.870E-9
LE 5 3 2.097E-9
CC 4 5 0.049E-12
CB 4 6 0.351E-12
Q1 4 6 5 QR03
.MODEL QR03 NPN ( BF=99  VAF=120  VAR=12.0  RC=6.1 RB=2.7
+RE=.029  IKF=0.70E-01  ISE=0.90E-14  TF=0.178E-10
+TR=0.13E-08  ITF=0.67E-01  VTF=0.50E+01  CJC=1.854E-12
+CJE=1.709E-12  XTI=3.0  NE=1.5  ISC=0.30E-14  EG=1.11
+XTB=1.5  BR=2.57  VJC=0.75  VJE=0.75  IS=0.10E-14
+MJC=0.33  MJE=0.33  XTF=4.0  IKR=0.70E-01  KF=0.1E-14
+NC=1.7  FC=0.50  RBM=1.9  IRB=0.10E-01  XCJC=0.5 )
.ENDS
**********
*SRC=BFY90;BFY90;BJTs NPN;RF;10V 10mA
*SYM=RFNBJT
* MOTOROLA BFY90  10 V  10 MA
.SUBCKT BFY90 1 2 3
LC 1 4 0.375E-9
LB 2 6 1.064E-9
LE 5 3 1.232E-9
CC 4 3 0.644E-12
CB 4 6 0.205E-12
Q1 4 6 5 QR04
.MODEL QR04 NPN ( BF=56  VAF=120  VAR=12.0  RC=4.6 RB=28.5
+RE=.824  IKF=0.35E-01  ISE=0.45E-14  TF=0.556E-10
+TR=0.40E-08  ITF=0.17E-01  VTF=0.50E+01  CJC=0.534E-12
+CJE=0.957E-12  XTI=3.0  NE=1.5  ISC=0.15E-14  EG=1.11
+XTB=1.5  BR=1.46  VJC=0.75  VJE=0.75  IS=0.50E-15
+MJC=0.33  MJE=0.33  XTF=4.0  IKR=0.35E-01  KF=0.1E-14
+NC=1.7  FC=0.50  RBM=20  IRB=0.50E-02  XCJC=0.482 )
.ENDS
**********
*SRC=BFX89;BFX89;BJTs NPN;RF;10V 10mA
*SYM=RFNBJT
* MOTOROLA BFX89  10 V  10 MA
.SUBCKT BFX89 1 2 3
LC 1 4 0.375E-9
LB 2 6 1.064E-9
LE 5 3 1.232E-9
CC 4 3 0.644E-12
CB 4 6 0.205E-12
Q1 4 6 5 QR04
.MODEL QR04 NPN ( BF=56  VAF=120  VAR=12.0  RC=4.6 RB=28.5
+RE=.824  IKF=0.35E-01  ISE=0.45E-14  TF=0.556E-10
+TR=0.40E-08  ITF=0.17E-01  VTF=0.50E+01  CJC=0.534E-12
+CJE=0.957E-12  XTI=3.0  NE=1.5  ISC=0.15E-14  EG=1.11
+XTB=1.5  BR=1.46  VJC=0.75  VJE=0.75  IS=0.50E-15
+MJC=0.33  MJE=0.33  XTF=4.0  IKR=0.35E-01  KF=0.1E-14
+NC=1.7  FC=0.50  RBM=20  IRB=0.50E-02  XCJC=0.482 )
.ENDS
**********
*SRC=BFG198;BFG198;BJTs NPN;RF;8V 50mA
*SYM=RFNBJT
* PHILLIPS BFG198  8 V  50 MA
.SUBCKT BFG198 1 2 3
LC 1 4 2.049E-9
LB 2 6 0.820E-9
LE 5 3 0.776E-9
CC 4 3 1.062E-12
CB 4 6 0.259E-12
Q1 4 6 5 QR38
.MODEL QR38 NPN ( BF=220  VAF=80  VAR=8.0  RC=1.96 RB=.24
+RE=.002  IKF=0.70E-01  ISE=0.90E-14  TF=0.111E-10
+TR=0.80E-09  ITF=0.67E-01  VTF=0.33E+01  CJC=1.422E-12
+CJE=0.569E-12  XTI=3.0  NE=1.5  ISC=0.30E-14  EG=1.11
+XTB=1.5  BR=5.71  VJC=0.75  VJE=0.75  IS=0.10E-14
+MJC=0.33  MJE=0.33  XTF=4.0  IKR=0.70E-01  KF=0.1E-14
+NC=1.7  FC=0.50  RBM=.16  IRB=0.10E-01  XCJC=0.5 )
.ENDS
**********
*SRC=BFQ51;BFQ51;BJTs PNP;RF;10V 10mA
*SYM=RFPBJT
* PHILLIPS BFQ51  10 V  10 MA
.SUBCKT BFQ51 1 2 3
LC 1 4 1.035E-9
LB 2 6 0.710E-9
LE 5 3 1.553E-9
CC 4 3 0.237E-12
CB 4 6 0.289E-12
Q1 4 6 5 QR45
.MODEL QR45 PNP ( BF=77  VAF=120  VAR=12.0  RC=7.5 RB=11.6
+RE=.205  IKF=0.18E-01  ISE=0.23E-14  TF=0.137E-10
+TR=0.99E-09  ITF=0.27E-01  VTF=0.50E+01  CJC=0.479E-12
+CJE=0.469E-12  XTI=3.0  NE=1.5  ISC=0.75E-15  EG=1.11
+XTB=1.5  BR=2.00  VJC=0.75  VJE=0.75  IS=0.25E-15
+MJC=0.33  MJE=0.33  XTF=4.0  IKR=0.18E-01  KF=0.1E-14
+NC=1.7  FC=0.50  RBM=8.1  IRB=0.25E-02  XCJC=0.548 )
.ENDS
**********
*SRC=BFR93;BFR93;BJTs NPN;RF;8V 20mA
*SYM=RFNBJT
* MOTOROLA BFR93  8 V  20 MA
.SUBCKT BFR93 1 2 3
LC 1 4 0.095E-9
LB 2 6 0.226E-9
LE 5 3 1.330E-9
CC 4 3 0.069E-12
CB 4 6 0.140E-12
Q1 4 6 5 QR60
.MODEL QR60 NPN ( BF=123  VAF=27  VAR=6  RC=9.68 RB=7.71
+RE=.66  IKF=0.05  ISE=3.3E-14  TF=6.1E-12
+TR=1E-10  ITF=0.05  VTF=25  CJC=1.124E-12 PTF=23
+CJE=4.572E-12  XTI=3.0  NE=1.98  ISC=8.2E-16  EG=1.11
+XTB=1.5  BR=12  VJC=0.75  VJE=0.75  IS=1.09E-15
+MJC=0.33  MJE=0.33  XTF=0.25  IKR=7E-3  KF=0.1E-14
+NC=1.12  FC=0.7  RBM=5.4  IRB=8E-4  XCJC=0.525 )
.ENDS
**********
*SRC=2N6304;QN6304;BJTs NPN;RF;10V 10mA
*SYM=RFNBJT
* MOTOROLA 2N6304  10 V  10 MA
.SUBCKT QN6304 1 2 3
LC 1 4 0.375E-9
LB 2 6 1.064E-9
LE 5 3 1.232E-9
CC 4 3 0.644E-12
CB 4 6 0.205E-12
Q1 4 6 5 QR04
.MODEL QR04 NPN ( BF=56  VAF=120  VAR=12.0  RC=4.6 RB=28.5
+RE=.824  IKF=0.35E-01  ISE=0.45E-14  TF=0.556E-10
+TR=0.40E-08  ITF=0.17E-01  VTF=0.50E+01  CJC=0.534E-12
+CJE=0.957E-12  XTI=3.0  NE=1.5  ISC=0.15E-14  EG=1.11
+XTB=1.5  BR=1.46  VJC=0.75  VJE=0.75  IS=0.50E-15
+MJC=0.33  MJE=0.33  XTF=4.0  IKR=0.35E-01  KF=0.1E-14
+NC=1.7  FC=0.50  RBM=20  IRB=0.50E-02  XCJC=0.482 )
.ENDS
**********
*SRC=2N6305;QN6305;BJTs NPN;RF;10V 10mA
*SYM=RFNBJT
* MOTOROLA 2N6305  10 V  10 MA
.SUBCKT QN6305 1 2 3
LC 1 4 0.375E-9
LB 2 6 1.064E-9
LE 5 3 1.232E-9
CC 4 3 0.644E-12
CB 4 6 0.205E-12
Q1 4 6 5 QR04
.MODEL QR04 NPN ( BF=56  VAF=120  VAR=12.0  RC=4.6 RB=28.5
+RE=.824  IKF=0.35E-01  ISE=0.45E-14  TF=0.556E-10
+TR=0.40E-08  ITF=0.17E-01  VTF=0.50E+01  CJC=0.534E-12
+CJE=0.957E-12  XTI=3.0  NE=1.5  ISC=0.15E-14  EG=1.11
+XTB=1.5  BR=1.46  VJC=0.75  VJE=0.75  IS=0.50E-15
+MJC=0.33  MJE=0.33  XTF=4.0  IKR=0.35E-01  KF=0.1E-14
+NC=1.7  FC=0.50  RBM=20  IRB=0.50E-02  XCJC=0.482 )
.ENDS
**********
*SRC=HXTR3102;HXTR3102;BJTs NPN;RF;15V 30mA
*SYM=RFNBJT
* HEWLETT PACKARD HXTR3102  15 V  30 MA
.SUBCKT HXTR3102 1 2 3
LC 1 4 0.238E-9
LB 2 6 0.128E-9
LE 5 3 0.359E-9
CC 4 3 0.454E-12
CB 4 6 0.308E-12
Q1 4 6 5 QR06
.MODEL QR06 NPN ( BF=45  VAF=200  VAR=20.0  RC=6.76 RB=4.43
+RE=6.84  IKF=0.70E-01  ISE=0.90E-14  TF=0.15E-10
+TR=0.11E-08  ITF=0.40E-01  VTF=0.83E+01  CJC=0.189E-12
+CJE=0.884E-12  XTI=3.0  NE=1.5  ISC=0.30E-14  EG=1.11
+XTB=1.5  BR=1.29  VJC=0.75  VJE=0.75  IS=0.10E-14
+MJC=0.33  MJE=0.33  XTF=4.0  IKR=0.70E-01  KF=0.1E-14
+NC=1.7  FC=0.50  RBM=3.7  IRB=0.10E-01  XCJC=0.5 )
.ENDS
**********
*SRC=HXTR5104;HXTR5104;BJTs NPN;RF;18V 110mA
*SYM=RFNBJT
* HEWLETT PACKARD HXTR5104  18 V  110 MA
.SUBCKT HXTR5104 1 2 3
LC 1 4 0.908E-9
LB 2 6 0.972E-9
LE 5 3 0.306E-9
CC 4 3 0.790E-12
CB 4 6 0.198E-12
Q1 4 6 5 QR70
.MODEL QR70 NPN ( BF=50  VAF=200  VAR=20.0  RC=0.38 RB=3.74
+RE=2.732  IKF=0.18E+00  ISE=0.23E-13  TF=0.223E-10
+TR=0.16E-08  ITF=0.15E+00  VTF=0.83E+01  CJC=1.192E-12
+CJE=0.459E-12  XTI=3.0  NE=1.5  ISC=0.75E-14  EG=1.11 PTF=23
+XTB=1.5  BR=1.29  VJC=0.75  VJE=0.75  IS=0.25E-14
+MJC=0.33  MJE=0.33  XTF=4.0  IKR=0.18E+00  KF=0.1E-14
+NC=1.7  FC=0.50  RBM=2.61  IRB=0.25E-01  XCJC=0.291 )
.ENDS
**********
*SRC=LT1001;LT1001;BJTs NPN;RF;8V 50mA
*SYM=RFNBJT
* MOTOROLA LT1001  8 V  50 MA
.SUBCKT LT1001 1 2 3
LC 1 4 0.380E-9
LB 2 6 1.637E-9
LE 5 3 3.074E-9
CC 4 3 2.067E-12
CB 4 6 1.353E-12
Q1 4 6 5 QR41
.MODEL QR41 NPN ( BF=110  VAF=160  VAR=16.0  RC=.99 RB=7.83
+RE=.542  IKF=0.14E+00  ISE=0.18E-13  TF=0.297E-10
+TR=0.21E-08  ITF=0.12E+00  VTF=0.66E+01  CJC=1.926E-12
+CJE=3.651E-12  XTI=3.0  NE=1.5  ISC=0.60E-14  EG=1.11
+XTB=1.5  BR=2.86  VJC=0.75  VJE=0.75  IS=0.20E-14
+MJC=0.33  MJE=0.33  XTF=4.0  IKR=0.14E+00  KF=0.1E-14
+NC=1.7  FC=0.50  RBM=5.5  IRB=0.20E-01  XCJC=0.5 )
.ENDS
**********
*SRC=MM4049;MM4049;BJTs PNP;RF;10V 10mA
*SYM=RFPBJT
* MOTOROLA MM4049  10 V  10 MA
.SUBCKT MM4049 1 2 3
LC 1 4 5.490E-9
LB 2 6 3.490E-9
LE 5 3 4.790E-9
CC 4 3 0.059E-12
CB 4 6 0.239E-12
Q1 4 6 5 QR61
.MODEL QR61 PNP ( BF=81  VAF=80  VAR=8.0  RC=8.1 RB=8.8
+RE=5.2  IKF=0.21E-01  ISE=0.27E-14  TF=0.561E-11
+TR=0.40E-09  ITF=0.33E-01  VTF=0.33E+01  CJC=0.679E-12
+CJE=1.782E-12  XTI=3.0  NE=1.5  ISC=0.90E-15  EG=1.11
+XTB=1.5  BR=2.11  VJC=0.75  VJE=0.75  IS=0.30E-15
+MJC=0.33  MJE=0.33  XTF=4.0  IKR=0.21E-01  KF=0.1E-14
+NC=1.7  FC=0.50  RBM=6.2  IRB=0.30E-02  XCJC=0.085 )
.ENDS
**********
*SRC=MMBR536;MMBR536;BJTs PNP;RF;10V 10mA
*SYM=RFPBJT
* MOTOROLA MMBR536  10 V  10 MA
.SUBCKT MMBR536 1 2 3
LC 1 4 0.587E-9
LB 2 6 0.514E-9
LE 5 3 1.050E-9
CC 4 5 0.579E-12
CB 4 6 0.422E-12
Q1 4 6 5 QR59
.MODEL QR59 PNP ( BF=69  VAF=80  VAR=8.0  RC=1.7 RB=62.3
+RE=1.45  IKF=0.21E-01  ISE=0.27E-14  TF=0.162E-10
+TR=0.12E-08  ITF=0.33E-01  VTF=0.33E+01  CJC=1.028E-12
+CJE=0.944E-12  XTI=3.0  NE=1.5  ISC=0.90E-15  EG=1.11
+XTB=1.5  BR=1.80  VJC=0.75  VJE=0.75  IS=0.30E-15
+MJC=0.33  MJE=0.33  XTF=4.0  IKR=0.21E-01  KF=0.1E-14
+NC=1.7  FC=0.50  RBM=44  IRB=0.30E-02  XCJC=0.286 )
.ENDS
**********
*SRC=MMBR571;MMBR571;BJTs NPN;RF;5V 50mA
*SYM=RFNBJT
* MOTOROLA MMBR571  5 V  50 MA
.SUBCKT MMBR571 1 2 3
LC 1 4 1.172E-9
LB 2 6 0.529E-9
LE 5 3 1.400E-9
CC 4 5 0.546E-12
CB 4 6 0.240E-12
Q1 4 6 5 QR08
.MODEL QR08 NPN ( BF=156  VAF=80  VAR=8.0  RC=1.8 RB=1.6
+RE=.125  IKF=0.56E-01  ISE=0.72E-14  TF=0.111E-10
+TR=0.80E-09  ITF=0.67E-01  VTF=0.33E+01  CJC=1.034E-12
+CJE=0.277E-12  XTI=3.0  NE=1.5  ISC=0.24E-14  EG=1.11
+XTB=1.5  BR=4.06  VJC=0.75  VJE=0.75  IS=0.80E-15
+MJC=0.33  MJE=0.33  XTF=4.0  IKR=0.56E-01  KF=0.1E-14
+NC=1.7  FC=0.50  RBM=1.1  IRB=0.80E-02  XCJC=0.5 )
.ENDS
**********
*SRC=MMBR911;MMBR911;BJTs NPN;RF;10V 20mA
*SYM=RFNBJT
* MOTOROLA MMBR911  10 V  20 MA
.SUBCKT MMBR911 1 2 3
LC 1 4 0.089E-9
LB 2 6 0.642E-9
LE 5 3 1.405E-9
CC 4 5 0.593E-12
CB 4 6 0.195E-12
Q1 4 6 5 QR09
.MODEL QR09 NPN ( BF=99  VAF=96  VAR=9.6  RC=5.6 RB=2
+RE=.697  IKF=0.42E-01  ISE=0.54E-14  TF=0.127E-10
+TR=0.92E-09  ITF=0.40E-01  VTF=0.40E+01  CJC=0.891E-12
+CJE=2.45E-12  XTI=3.0  NE=1.5  ISC=0.18E-14  EG=1.11
+XTB=1.5  BR=2.57  VJC=0.75  VJE=0.75  IS=0.60E-15
+MJC=0.33  MJE=0.33  XTF=4.0  IKR=0.42E-01  KF=0.1E-14
+NC=1.7  FC=0.50  RBM=1.4  IRB=0.60E-02  XCJC=0.5 )
.ENDS
**********
*SRC=MMBR941;MMBR941;BJTs NPN;RF;6V 15mA
*SYM=RFNBJT
* MOTOROLA MMBR941  6 V  15 MA
.SUBCKT MMBR941 1 2 3
LC 1 4 0.168E-9
LB 2 6 0.828E-9
LE 5 3 1.092E-9
CC 4 5 0.041E-12
CB 4 6 0.242E-12
Q1 4 6 5 QR10
.MODEL QR10 NPN ( BF=110  VAF=80  VAR=8.0  RC=.54 RB=.08
+RE=.009  IKF=0.35E-01  ISE=0.45E-14  TF=0.111E-10
+TR=0.80E-09  ITF=0.20E-01  VTF=0.33E+01  CJC=0.074E-12
+CJE=0.064E-12  XTI=3.0  NE=1.5  ISC=0.15E-14  EG=1.11
+XTB=1.5  BR=2.86  VJC=0.75  VJE=0.75  IS=0.50E-15
+MJC=0.33  MJE=0.33  XTF=4.0  IKR=0.35E-01  KF=0.1E-14
+NC=1.7  FC=0.50  RBM=.06  IRB=0.50E-02  XCJC=0.5 )
.ENDS
**********
*SRC=MRF941;MRF941;BJTs NPN;RF;6V 15mA
*SYM=RFNBJT
*MOTOROLA MRF941 6V 15MA
.SUBCKT MRF941 1 2 3
LC 1 4 0.120E-9
LB 2 6 1.609E-9
LE 5 3 0.760E-9
CC 4 3 0.253E-12
CB 4 6 0.094E-12
Q1 4 6 5 QR22
.MODEL QR22 NPN ( BF=154  VAF=80  VAR=8.0  RC=1.98 RB=2.64
+RE=.046  IKF=0.35E-01  ISE=0.14E-13  TF=0.856E-11
+TR=0.62E-09  ITF=0.20E-01  VTF=0.33E+01  CJC=0.409E-12
+CJE=0.25E-12  XTI=3.0  NE=1.5  ISC=0.45E-14  EG=1.11 PTF=20
+XTB=1.5  BR=4.00  VJC=0.75  VJE=0.75  IS=0.15E-14
+MJC=0.33  MJE=0.33  XTF=4.0  IKR=0.35E-01  KF=0.1E-14
+NC=1.7  FC=0.50  RBM=1.8  IRB=0.50E-02  XCJC=0.545 )
.ENDS
**********
*SRC=MMBR951;MMBR951;BJTs NPN;RF;6V 30mA
*SYM=RFNBJT
* MOTOROLA MMBR951  6 V  30 MA
.SUBCKT MMBR951 1 2 3
LC 1 4 0.212E-9
LB 2 6 0.260E-9
LE 5 3 1.184E-9
CC 4 3 0.412E-12
CB 4 6 0.325E-12
Q1 4 6 5 QR11
.MODEL QR11 NPN ( BF=185  VAF=80  VAR=8.0  RC=2 RB=5.2
+RE=.133  IKF=0.70E-01  ISE=0.90E-14  TF=0.805E-11
+TR=0.58E-09  ITF=0.33E-01  VTF=0.33E+01  CJC=0.442E-12
+CJE=1.471E-12  XTI=3.0  NE=1.5  ISC=0.30E-14  EG=1.11
+XTB=1.5  BR=4.80  VJC=0.75  VJE=0.75  IS=0.10E-14
+MJC=0.33  MJE=0.33  XTF=4.0  IKR=0.70E-01  KF=0.1E-14
+NC=1.7  FC=0.50  RBM=3.6  IRB=0.10E-01  XCJC=0.589 )
.ENDS
**********
*SRC=MRF2369;MRF2369;BJTs NPN;RF;10V 10mA
*SYM=RFNBJT
* MOTOROLA MRF2369  10 V  10 MA
.SUBCKT MRF2369 1 2 3
LC 1 4 0.135E-9
LB 2 6 1.510E-9
LE 5 3 0.816E-9
CC 4 3 0.325E-12
CB 4 6 0.082E-12
Q1 4 6 5 QR99
.MODEL QR99 NPN ( BF=156  VAF=120  VAR=12.0  RC=1.2 RB=4.17
+RE=.289  IKF=0.49E-01  ISE=0.63E-14  TF=0.574E-11
+TR=0.41E-09  ITF=0.40E-01  VTF=0.50E+01  CJC=1.247E-12
+CJE=4.30E-12  XTI=3.0  NE=1.5  ISC=0.21E-14  EG=1.11
+XTB=1.5  BR=4.06  VJC=0.75  VJE=0.75  IS=0.70E-15
+MJC=0.33  MJE=0.33  XTF=4.0  IKR=0.49E-01  KF=0.1E-14
+NC=1.7  FC=0.50  RBM=2.9  IRB=0.70E-02  XCJC=0.651 )
.ENDS
**********
.SUBCKT MRF3866OLD 1 2 3
LC 1 4 0.169E-9
LB 2 6 1.790E-9
LE 5 3 0.279E-9
CC 4 3 1.490E-12
CB 4 6 0.463E-12
Q1 4 6 5 QR13
.MODEL QR13 NPN ( BF=100  VAF=240  VAR=24.0  RC=4.9 RB=7.2
+RE=.132  IKF=0.28E+00  ISE=0.36E-13  TF=0.71E-10
+TR=0.80E-08  ITF=0.67E-01  VTF=0.99E+01  CJC=2.24E-12
+CJE=3.29E-12  XTI=3.0  NE=1.5  ISC=0.12E-13  EG=1.11
+XTB=1.5  BR=1.49  VJC=0.75  VJE=0.75  IS=0.40E-14
+MJC=0.33  MJE=0.33  XTF=4.0  IKR=0.28E+00  KF=0.1E-14
+NC=1.7  FC=0.50  RBM=5  IRB=0.40E-01  XCJC=0.5 )
.ENDS
**********
*SRC=MRF521;MRF521;BJTs PNP;RF;8V 50mA
*SYM=RFPBJT
* MOTOROLA MRF521  8 V  50 MA
.SUBCKT MRF521 1 2 3
LC 1 4 0.148E-9
LB 2 6 0.631E-9
LE 5 3 0.681E-9
CC 4 5 0.113E-12
CB 4 6 0.189E-12
Q1 4 6 5 QR44
.MODEL QR44 PNP ( BF=83  VAF=80  VAR=8.0  RC=3.11 RB=1.89
+RE=.166  IKF=0.49E-01  ISE=0.63E-14  TF=0.212E-10
+TR=0.15E-08  ITF=0.67E-01  VTF=0.33E+01  CJC=1.710E-12
+CJE=1.616E-12  XTI=3.0  NE=1.5  ISC=0.21E-14  EG=1.11
+XTB=1.5  BR=2.14  VJC=0.75  VJE=0.75  IS=0.70E-15
+MJC=0.33  MJE=0.33  XTF=4.0  IKR=0.49E-01  KF=0.1E-14
+NC=1.7  FC=0.50  RBM=1.3  IRB=0.70E-02  XCJC=0.5 )
.ENDS
**********
*SRC=MRF5211;MRF5211;BJTs PNP;RF;8V 50mA
*SYM=RFPBJT
* MOTOROLA MRF5211  8 V  50 MA
.SUBCKT MRF5211 1 2 3
LC 1 4 0.811E-9
LB 2 6 1.416E-9
LE 5 3 0.569E-9
CC 4 3 0.268E-12
CB 4 6 0.286E-12
Q1 4 6 5 QR39
.MODEL QR39 PNP ( BF=83  VAF=80  VAR=8.0  RC=5.3 RB=1.22
+RE=.046  IKF=0.49E-01  ISE=0.63E-14  TF=0.212E-10
+TR=0.15E-08  ITF=0.67E-01  VTF=0.33E+01  CJC=1.314E-12
+CJE=1.101E-12  XTI=3.0  NE=1.5  ISC=0.21E-14  EG=1.11
+XTB=1.5  BR=2.14  VJC=0.75  VJE=0.75  IS=0.70E-15
+MJC=0.33  MJE=0.33  XTF=4.0  IKR=0.49E-01  KF=0.1E-14
+NC=1.7  FC=0.50  RBM=0.9  IRB=0.70E-02  XCJC=0.5 )
.ENDS
**********
*SRC=MRF536;MRF536;BJTs PNP;RF;10V 10mA
*SYM=RFPBJT
* MOTOROLA MRF536  10 V  10 MA
.SUBCKT MRF536 1 2 3
LC 1 4 0.386E-9
LB 2 6 0.564E-9
LE 5 3 0.990E-9
CC 4 3 0.145E-12
CB 4 6 0.242E-12
Q1 4 6 5 QR14
.MODEL QR14 PNP ( BF=81  VAF=80  VAR=8.0  RC=5.6 RB=41.6
+RE=1.227  IKF=0.21E-01  ISE=0.27E-14  TF=0.144E-10
+TR=0.10E-08  ITF=0.33E-01  VTF=0.33E+01  CJC=1.117E-12
+CJE=0.537E-12  XTI=3.0  NE=1.5  ISC=0.90E-15  EG=1.11
+XTB=1.5  BR=2.11  VJC=0.75  VJE=0.75  IS=0.30E-15
+MJC=0.33  MJE=0.33  XTF=4.0  IKR=0.21E-01  KF=0.1E-14
+NC=1.7  FC=0.50  RBM=29  IRB=0.30E-02  XCJC=0.401 )
.ENDS
**********
*SRC=MRF559;MRF559;BJTs NPN;RF;10V 50mA
*SYM=RFNBJT
* MOTOROLA MRF559  10 V  50 MA
.SUBCKT MRF559 1 2 3
LC 1 4 0.128E-9
LB 2 6 1.400E-9
LE 5 3 0.887E-9
CC 4 5 0.176E-12
CB 4 6 0.232E-12
Q1 4 6 5 QR15
.MODEL QR15 NPN ( BF=99  VAF=128  VAR=12.8  RC=1.84 RB=.98
+RE=.51  IKF=0.11E+00  ISE=0.14E-13  TF=0.262E-10
+TR=0.19E-08  ITF=0.80E-01  VTF=0.53E+01  CJC=2.663E-12
+CJE=3.085E-12  XTI=3.0  NE=1.5  ISC=0.45E-14  EG=1.11
+XTB=1.5  BR=2.57  VJC=0.75  VJE=0.75  IS=0.15E-14
+MJC=0.33  MJE=0.33  XTF=4.0  IKR=0.11E+00  KF=0.1E-14
+NC=1.7  FC=0.50  RBM=.7  IRB=0.15E-01  XCJC=0.5 )
.ENDS
**********
*SRC=MRF571;MRF571;BJTs NPN;RF;8V 50mA
*SYM=RFNBJT
* MOTOROLA MRF571  8 V  50 MA
.SUBCKT MRF571 1 2 3
LC 1 4 0.171E-9
LB 2 6 1.230E-9
LE 5 3 0.772E-9
CC 4 5 0.364E-12
CB 4 6 0.146E-12
Q1 4 6 5 QR16
.ENDS
.MODEL QR16 NPN ( BF=156  VAF=80  VAR=8.0  RC=2.4 RB=1.44
+RE=.037  IKF=0.49E-01  ISE=0.63E-14  TF=0.111E-10
+TR=0.80E-09  ITF=0.53E-01  VTF=0.33E+01  CJC=1.156E-12
+CJE=0.986E-12  XTI=3.0  NE=1.5  ISC=0.21E-14  EG=1.11
+XTB=1.5  BR=4.06  VJC=0.75  VJE=0.75  IS=0.70E-15
+MJC=0.33  MJE=0.33  XTF=4.0  IKR=0.49E-01  KF=0.1E-14
+NC=1.7  FC=0.50  RBM=1  IRB=0.70E-02  XCJC=0.5 )
**********
*SRC=MRF5711;MRF5711;BJTs NPN;RF;8V 80mA
*SYM=RFNBJT
* MOTOROLA MRF5711  8 V  50 MA
.SUBCKT MRF5711 1 2 3
LC 1 4 1.384E-9
LB 2 6 2.050E-9
LE 5 3 0.585E-9
CC 4 5 0.488E-12
CB 4 6 0.173E-12
Q1 4 6 5 QR17
.MODEL QR17 NPN ( BF=156  VAF=80  VAR=8.0  RC=2.49 RB=1.26
+RE=.019  IKF=0.49E-01  ISE=0.63E-14  TF=0.119E-10
+TR=0.85E-09  ITF=0.60E-01  VTF=0.33E+01  CJC=0.972E-12
+CJE=1.727E-12  XTI=3.0  NE=1.5  ISC=0.21E-14  EG=1.11
+XTB=1.5  BR=4.06  VJC=0.75  VJE=0.75  IS=0.70E-15
+MJC=0.33  MJE=0.33  XTF=4.0  IKR=0.49E-01  KF=0.1E-14
+NC=1.7  FC=0.50  RBM=.88  IRB=0.70E-02  XCJC=0.5 )
.ENDS
**********
*SRC=MRF914;MRF914;BJTs NPN;RF;10V 10mA
*SYM=RFNBJT
* MOTOROLA MRF914  10 V  10 MA
.SUBCKT MRF914 1 2 3
LC 1 4 0.878E-9
LB 2 6 0.037E-9
LE 5 3 2.859E-9
CC 4 3 0.649E-12
CB 4 6 0.251E-12
Q1 4 6 5 QR40
.MODEL QR40 NPN ( BF=88  VAF=96  VAR=9.6  RC=5.7 RB=10.4
+RE=.489  IKF=0.28E-01  ISE=0.36E-14  TF=0.198E-10
+TR=0.14E-08  ITF=0.27E-01  VTF=0.40E+01  CJC=0.725E-12
+CJE=2.34E-12  XTI=3.0  NE=1.5  ISC=0.12E-14  EG=1.11 PTF=23
+XTB=1.5  BR=2.29  VJC=0.75  VJE=0.75  IS=0.40E-15
+MJC=0.33  MJE=0.33  XTF=4.0  IKR=0.28E-01  KF=0.1E-14
+NC=1.7  FC=0.50  RBM=7.2  IRB=0.40E-02  XCJC=0.385 )
.ENDS
**********
*SRC=MRF9331;MRF9331;BJTs NPN;RF;5V 1mA
*SYM=RFNBJT
* MOTOROLA MRF9331  5 V  1 MA
.SUBCKT MRF9331 1 2 3
LC 1 4 0.170E-9
LB 2 6 0.940E-9
LE 5 3 0.403E-9
CC 4 5 0.587E-12
CB 4 6 0.097E-12
Q1 4 6 5 QR43
.MODEL QR43 NPN ( BF=132  VAF=64  VAR=6.4  RC=14.6 RB=6.82
+RE=4.922  IKF=0.35E-02  ISE=0.45E-15  TF=0.148E-10
+TR=0.11E-08  ITF=0.13E-02  VTF=0.26E+01  CJC=0.172E-12
+CJE=0.006E-12  XTI=3.0  NE=1.5  ISC=0.15E-15  EG=1.11
+XTB=1.5  BR=3.43  VJC=0.75  VJE=0.75  IS=0.50E-16
+MJC=0.33  MJE=0.33  XTF=4.0  IKR=0.35E-02  KF=0.1E-14
+NC=1.7  FC=0.50  RBM=4.8  IRB=0.50E-03  XCJC=0.5 )
.ENDS
**********
*SRC=BF430;BF430;BJTs NPN;RF;10V 10mA
*SYM=RFNBJT
* MOTOROLA BF430  8 V  50 MA
.SUBCKT BF430 1 2 3
LC 1 4 1.384E-9
LB 2 6 2.050E-9
LE 5 3 0.585E-9
CC 4 5 0.488E-12
CB 4 6 0.173E-12
Q1 4 6 5 QR17
.MODEL QR17 NPN ( BF=156  VAF=80  VAR=8.0  RC=2.49 RB=1.26
+RE=.019  IKF=0.49E-01  ISE=0.63E-14  TF=0.119E-10
+TR=0.85E-09  ITF=0.60E-01  VTF=0.33E+01  CJC=0.972E-12
+CJE=1.727E-12  XTI=3.0  NE=1.5  ISC=0.21E-14  EG=1.11
+XTB=1.5  BR=4.06  VJC=0.75  VJE=0.75  IS=0.70E-15
+MJC=0.33  MJE=0.33  XTF=4.0  IKR=0.49E-01  KF=0.1E-14
+NC=1.7  FC=0.50  RBM=.88  IRB=0.70E-02  XCJC=0.5 )
.ENDS
**********
*SRC=BF433;BF433;BJTs NPN;RF;10V 50mA
*SYM=RFNBJT
* MOTOROLA BF433  10 V  50 MA
.SUBCKT BF433 1 2 3
LC 1 4 0.036E-9
LB 2 6 1.249E-9
LE 5 3 1.112E-9
CC 4 3 0.829E-12
CB 4 6 0.121E-12
Q1 4 6 5 QR72
.MODEL QR72 NPN ( BF=99  VAF=120  VAR=12.0  RC=1.45 RB=3.03
+RE=.758  IKF=0.14E+00  ISE=0.18E-13  TF=0.162E-10
+TR=0.12E-08  ITF=0.11E+00  VTF=0.50E+01  CJC=2.557E-12
+CJE=2.682E-12  XTI=3.0  NE=1.5  ISC=0.60E-14  EG=1.11
+XTB=1.5  BR=2.57  VJC=0.75  VJE=0.75  IS=0.20E-14
+MJC=0.33  MJE=0.33  XTF=4.0  IKR=0.14E+00  KF=0.1E-14
+NC=1.7  FC=0.50  RBM=2.1  IRB=0.20E-01  XCJC=0.592 )
.ENDS
**********
*SRC=MRF581;MRF581;BJTs NPN;RF;10V 100mA
*SYM=RFNBJT
*MOTOROLA MRF581
.SUBCKT MRF581 1 2 3
LC 1 4 0.432E-9
LB 2 6 1.421E-9
LE 5 3 0.738E-9
CC 4 3 0.081E-12
CB 4 6 0.268E-12
Q1 4 6 5 QR99
.MODEL QR99 NPN ( BF=110  VAF=144  VAR=14.4  RC=9.12 RB=3.25
+RE=.881  IKF=0.14E+00  ISE=0.18E-13  TF=0.560E-11
+TR=0.56E-09  ITF=0.11E+00  VTF=0.59E+01  CJC=2.740E-12
+CJE=9.61E-12  XTI=3.0  NE=1.5  ISC=0.60E-14  EG=1.11
+XTB=1.5  BR=2.86  VJC=0.75  VJE=0.75  IS=0.20E-14
+MJC=0.33  MJE=0.33  XTF=4.0  IKR=0.14E+00  KF=0.1E-14
+NC=1.7  FC=0.50  RBM=2.27  IRB=0.20E-01  XCJC=0.453 )
.ENDS
**********
*SRC=MRF5812;MRF5812;BJTs NPN;RF;10V 50mA
*SYM=RFNBJT
* MOTOROLA MRF5812  10 V  50 MA
.SUBCKT MRF5812 1 2 3
LC 1 4 0.036E-9
LB 2 6 1.249E-9
LE 5 3 1.112E-9
CC 4 3 0.829E-12
CB 4 6 0.121E-12
Q1 4 6 5 QR72
.MODEL QR72 NPN ( BF=99  VAF=120  VAR=12.0  RC=1.45 RB=3.03
+RE=.758  IKF=0.14E+00  ISE=0.18E-13  TF=0.162E-10
+TR=0.12E-08  ITF=0.11E+00  VTF=0.50E+01  CJC=2.557E-12
+CJE=2.682E-12  XTI=3.0  NE=1.5  ISC=0.60E-14  EG=1.11
+XTB=1.5  BR=2.57  VJC=0.75  VJE=0.75  IS=0.20E-14
+MJC=0.33  MJE=0.33  XTF=4.0  IKR=0.14E+00  KF=0.1E-14
+NC=1.7  FC=0.50  RBM=2.1  IRB=0.20E-01  XCJC=0.592 )
.ENDS
**********
*SRC=MRF901;MRF901;BJTs NPN;RF;5V 5mA
*SYM=RFNBJT
* MOTOROLA MRF901
.SUBCKT MRF901 1 2 3
LC 1 4 0.589E-9
LB 2 6 1.362E-9
LE 5 3 1.021E-9
CC 4 3 0.334E-12
CB 4 6 0.126E-12
Q1 4 6 5 QR99
.MODEL QR99 NPN ( BF=88  VAF=120  VAR=12.0  RC=2.85 RB=5.24
+RE=.402  IKF=0.21E-01  ISE=0.27E-14  TF=0.207E-10
+TR=0.15E-08  ITF=0.20E-01  VTF=0.50E+01  CJC=1.026E-12
+CJE=1.399E-12  XTI=3.0  NE=1.5  ISC=0.90E-15  EG=1.11
+XTB=1.5  BR=2.29  VJC=0.75  VJE=0.75  IS=0.30E-15
+MJC=0.33  MJE=0.33  XTF=4.0  IKR=0.21E-01  KF=0.1E-14
+NC=1.7  FC=0.50  RBM=3.7  IRB=0.30E-02  XCJC=0.523 )
.ENDS
**********
*SRC=MRF911;MRF911;BJTs NPN;RF;10V 10mA
*SYM=RFNBJT
* MOTOROLA MRF911  10 V  10 MA
.SUBCKT MRF911 1 2 3
LC 1 4 0.112E-9
LB 2 6 1.402E-9
LE 5 3 0.884E-9
CC 4 5 0.246E-12
CB 4 6 0.225E-12
Q1 4 6 5 QR21
.MODEL QR21 NPN ( BF=99  VAF=96  VAR=9.6  RC=5.7 RB=3.39
+RE=1.085  IKF=0.28E-01  ISE=0.36E-14  TF=0.178E-10
+TR=0.13E-08  ITF=0.40E-01  VTF=0.40E+01  CJC=1.262E-12
+CJE=2.045E-12  XTI=3.0  NE=1.5  ISC=0.12E-14  EG=1.11
+XTB=1.5  BR=2.57  VJC=0.75  VJE=0.75  IS=0.40E-15
+MJC=0.33  MJE=0.33  XTF=4.0  IKR=0.28E-01  KF=0.1E-14
+NC=1.7  FC=0.50  RBM=2.4  IRB=0.40E-02  XCJC=0.5 )
.ENDS
**********
*SRC=MRF9411;MRF9411;BJTs NPN;RF;6V 15mA
*SYM=RFNBJT
* MOTOROLA MRF9411  6 V  15 MA
.SUBCKT MRF9411 1 2 3
LC 1 4 0.411E-9
LB 2 6 1.215E-9
LE 5 3 0.361E-9
CC 4 3 0.390E-12
CB 4 6 0.102E-12
Q1 4 6 5 QR23
.MODEL QR23 NPN ( BF=165  VAF=80  VAR=8.0  RC=2.9 RB=8.83
+RE=.053  IKF=0.35E-01  ISE=0.45E-14  TF=0.856E-11
+TR=0.62E-09  ITF=0.20E-01  VTF=0.33E+01  CJC=0.312E-12
+CJE=0.890E-12  XTI=3.0  NE=1.5  ISC=0.15E-14  EG=1.11
+XTB=1.5  BR=4.29  VJC=0.75  VJE=0.75  IS=0.50E-15
+MJC=0.33  MJE=0.33  XTF=4.0  IKR=0.35E-01  KF=0.1E-14
+NC=1.7  FC=0.50  RBM=6.2  IRB=0.50E-02  XCJC=0.927 )
.ENDS
**********
*SRC=MRF951;MRF951;BJTs NPN;RF;6V 30mA
*SYM=RFNBJT
* MOTOROLA MRF951  6 V  30 MA
.SUBCKT MRF951 1 2 3
LC 1 4 0.160E-9
LB 2 6 0.710E-9
LE 5 3 0.550E-9
CC 4 3 0.440E-12
CB 4 6 0.145E-12
Q1 4 6 5 QR24
.MODEL QR24 NPN ( BF=132  VAF=80  VAR=8.0  RC=1.4 RB=0.25
+RE=.075  IKF=0.70E-01  ISE=0.90E-14  TF=0.105E-10
+TR=0.75E-09  ITF=0.33E-01  VTF=0.33E+01  CJC=0.698E-12
+CJE=0.124E-12  XTI=3.0  NE=1.5  ISC=0.30E-14  EG=1.11
+XTB=1.5  BR=3.43  VJC=0.75  VJE=0.75  IS=0.10E-14
+MJC=0.33  MJE=0.33  XTF=4.0  IKR=0.70E-01  KF=0.1E-14
+NC=1.7  FC=0.50  RBM=.18  IRB=0.10E-01  XCJC=0.5 )
.ENDS
**********
*SRC=MRF9511;MRF9511;BJTs NPN;RF;6V 30mA
*SYM=RFNBJT
* MOTOROLA MRF9511  6 V  30 MA
.SUBCKT MRF9511 1 2 3
LC 1 4 0.307E-9
LB 2 6 0.800E-9
LE 5 3 0.594E-9
CC 4 3 0.186E-12
CB 4 6 0.315E-12
Q1 4 6 5 QR25
.MODEL QR25 NPN ( BF=185  VAF=80  VAR=8.0  RC=1.17 RB=3.42
+RE=.169  IKF=0.70E-01  ISE=0.90E-14  TF=0.805E-11
+TR=0.58E-09  ITF=0.33E-01  VTF=0.33E+01  CJC=0.409E-12
+CJE=0.642E-12  XTI=3.0  NE=1.5  ISC=0.30E-14  EG=1.11
+XTB=1.5  BR=4.80  VJC=0.75  VJE=0.75  IS=0.10E-14
+MJC=0.33  MJE=0.33  XTF=4.0  IKR=0.70E-01  KF=0.1E-14
+NC=1.7  FC=0.50  RBM=2.4  IRB=0.10E-01  XCJC=0.778 )
.ENDS
**********
*SRC=MRF961;MRF961;BJTs NPN;RF;10V 25mA
*SYM=RFNBJT
* MOTOROLA MRF961  10 V  25 MA
.SUBCKT MRF961 1 2 3
LC 1 4 1.040E-9
LB 2 6 2.367E-9
LE 5 3 1.139E-9
CC 4 3 0.246E-12
CB 4 6 0.381E-12
Q1 4 6 5 QR26
.ENDS
.MODEL QR26 NPN ( BF=165  VAF=120  VAR=12.0  RC=15 RB=1.1
+RE=.048  IKF=0.70E-01  ISE=0.90E-14  TF=0.119E-10
+TR=0.85E-09  ITF=0.67E-01  VTF=0.50E+01  CJC=1.839E-12
+CJE=2.376E-12  XTI=3.0  NE=1.5  ISC=0.30E-14  EG=1.11
+XTB=1.5  BR=4.29  VJC=0.75  VJE=0.75  IS=0.10E-14
+MJC=0.33  MJE=0.33  XTF=4.0  IKR=0.70E-01  KF=0.1E-14
+NC=1.7  FC=0.50  RBM=.8  IRB=0.10E-01  XCJC=0.5 )
**********
*SRC=MRF962;MRF962;BJTs NPN;RF;10V 25mA
*SYM=RFNBJT
* MOTOROLA MRF962  10 V  25 MA
.SUBCKT MRF962 1 2 3
LC 1 4 0.102E-9
LB 2 6 3.370E-9
LE 5 3 0.581E-9
CC 4 3 0.099E-12
CB 4 6 0.347E-12
Q1 4 6 5 QR27
.MODEL QR27 NPN ( BF=90  VAF=120  VAR=12.0  RC=9.2 RB=.11
+RE=.014  IKF=0.70E-01  ISE=0.90E-14  TF=0.178E-10
+TR=0.13E-08  ITF=0.67E-01  VTF=0.50E+01  CJC=1.68E-12
+CJE=1.42E-12  XTI=3.0  NE=1.5  ISC=0.30E-14  EG=1.11
+XTB=1.5  BR=2.29  VJC=0.75  VJE=0.75  IS=0.10E-14
+MJC=0.33  MJE=0.33  XTF=4.0  IKR=0.70E-01  KF=0.1E-14
+NC=1.7  FC=0.50  RBM=.006  IRB=0.10E-01  XCJC=0.5 )
.ENDS
**********
*SRC=MRF965;MRF965;BJTs NPN;RF;10V 25mA
*SYM=RFNBJT
* MOTOROLA MRF965  10 V  25 MA
.SUBCKT MRF965 1 2 3
LC 1 4 0.349E-9
LB 2 6 1.206E-9
LE 5 3 1.435E-9
CC 4 3 1.006E-12
CB 4 6 0.374E-12
Q1 4 6 5 QR28
.MODEL QR28 NPN ( BF=88  VAF=120  VAR=12.0  RC=1.87 RB=6.01
+RE=.126  IKF=0.70E-01  ISE=0.90E-14  TF=0.178E-10
+TR=0.13E-08  ITF=0.67E-01  VTF=0.50E+01  CJC=2.451E-12
+CJE=4.059E-12  XTI=3.0  NE=1.5  ISC=0.30E-14  EG=1.11
+XTB=1.5  BR=2.29  VJC=0.75  VJE=0.75  IS=0.10E-14
+MJC=0.33  MJE=0.33  XTF=4.0  IKR=0.70E-01  KF=0.1E-14
+NC=1.7  FC=0.50  RBM=4.2  IRB=0.10E-01  XCJC=0.483 )
.ENDS
**********
*SRC=2N2857;QN2857;BJTs NPN;RF;6V 1.5mA
*SYM=RFNBJT
* MOTOROLA 2N2857  6 V  1.5 MA
.SUBCKT QN2857 1 2 3
LC 1 4 0.313E-9
LB 2 6 0.850E-9
LE 5 3 1.393E-9
CC 4 5 0.362E-12
CB 4 6 0.330E-12
Q1 4 6 5 QR30
.MODEL QR30 NPN ( BF=86  VAF=120  VAR=12.0  RC=12 RB=26
+RE=4.10  IKF=0.28E-01  ISE=0.36E-14  TF=0.556E-10
+TR=0.40E-08  ITF=0.11E-01  VTF=0.50E+01  CJC=1.10E-12
+CJE=1.51E-12  XTI=3.0  NE=1.5  ISC=0.12E-14  EG=1.11
+XTB=1.5  BR=2.23  VJC=0.75  VJE=0.75  IS=0.40E-15
+MJC=0.33  MJE=0.33  XTF=4.0  IKR=0.28E-01  KF=0.1E-14
+NC=1.7  FC=0.50  RBM=18  IRB=0.40E-02  XCJC=0.5 )
.ENDS
**********
*SRC=2N4957;QN4957;BJTs PNP;RF;10V 2mA
*SYM=RFPBJT
* MOTOROLA 2N4957  10 V  2 MA
.SUBCKT QN4957 1 2 3
LC 1 4 0.533E-9
LB 2 6 2.946E-9
LE 5 3 1.248E-9
CC 4 3 0.419E-12
CB 4 6 0.181E-12
Q1 4 6 5 QR32
.MODEL QR32 PNP ( BF=44  VAF=240  VAR=24.0  RC=5.2 RB=16.7
+RE=2.372  IKF=0.21E-01  ISE=0.27E-14  TF=0.556E-10
+TR=0.40E-08  ITF=0.27E-02  VTF=0.99E+01  CJC=0.364E-12
+CJE=0.174E-12  XTI=3.0  NE=1.5  ISC=0.90E-15  EG=1.11
+XTB=1.5  BR=1.14  VJC=0.75  VJE=0.75  IS=0.30E-15
+MJC=0.33  MJE=0.33  XTF=4.0  IKR=0.21E-01  KF=0.1E-14
+NC=1.7  FC=0.50  RBM=11.7  IRB=0.30E-02  XCJC=0.51 )
.ENDS
**********
*SRC=2N5109;QN5109;BJTs NPN;RF;15V 35mA
*SYM=RFNBJT
* MOTOROLA 2N5109  15 V  35 MA
.SUBCKT QN5109 1 2 3
LC 1 4 0.875E-9
LB 2 6 1.590E-9
LE 5 3 2.650E-9
CC 4 3 1.410E-12
CB 4 6 0.561E-12
Q1 4 6 5 QR33
.MODEL QR33 NPN ( BF=44  VAF=160  VAR=16.0  RC=0.69 RB=1.57
+RE=2.75  IKF=0.28E+00  ISE=0.36E-13  TF=0.111E-09
+TR=0.80E-08  ITF=0.82E-01  VTF=0.66E+01  CJC=2.758E-12
+CJE=1.822E-12  XTI=3.0  NE=1.5  ISC=0.12E-13  EG=1.11
+XTB=1.5  BR=1.14  VJC=0.75  VJE=0.75  IS=0.40E-14
+MJC=0.33  MJE=0.33  XTF=4.0  IKR=0.28E+00  KF=0.1E-14
+NC=1.7  FC=0.50  RBM=1.1  IRB=0.40E-01  XCJC=0.5 )
.ENDS
**********
*SRC=2N5179RF;QN5179RF;BJTs NPN;RF;6V 5mA
*SYM=RFNBJT
* MOTOROLA 2N5179  6 V  5 MA
.SUBCKT QN5179RF 1 2 3
LC 1 4 0.490E-9
LB 2 6 1.040E-9
LE 5 3 0.970E-9
CC 4 5 0.600E-12
CB 4 6 0.272E-12
Q1 4 6 5 QR34
.MODEL QR34 NPN ( BF=96  VAF=96  VAR=9.6  RC=7.1  RB=41.3
+RE=1.413  IKF=0.35E-01  ISE=0.45E-14  TF=0.557E-10
+TR=0.40E-08  ITF=0.16E-01  VTF=0.40E+01  CJC=0.791E-12
+CJE=3.57E-12  XTI=3.0  NE=1.5  ISC=0.15E-14  EG=1.11
+XTB=1.5  BR=2.49  VJC=0.75  VJE=0.75  IS=0.50E-15
+MJC=0.33  MJE=0.33  XTF=4.0  IKR=0.35E-01  KF=0.1E-14
+NC=1.7  FC=0.50  RBM=29  IRB=0.50E-02  XCJC=0.264 )
.ENDS
**********
*SRC=2N6604;QN6604;BJTs NPN;RF;10V 10mA
*SYM=RFNBJT
* MOTOROLA 2N6604  10 V  10 MA
.SUBCKT QN6604 1 2 3
LC 1 4 0.126E-9
LB 2 6 0.514E-9
LE 5 3 0.603E-9
CC 4 3 0.726E-12
CB 4 6 0.146E-12
Q1 4 6 5 QR35
.MODEL QR35 NPN ( BF=88  VAF=120  VAR=12.0  RC=5.2 RB=1.99
+RE=.277  IKF=0.35E-01  ISE=0.45E-14  TF=0.159E-10
+TR=0.11E-08  ITF=0.40E-01  VTF=0.50E+01  CJC=1.059E-12
+CJE=1.596E-12  XTI=3.0  NE=1.5  ISC=0.15E-14  EG=1.11
+XTB=1.5  BR=2.29  VJC=0.75  VJE=0.75  IS=0.50E-15
+MJC=0.33  MJE=0.33  XTF=4.0  IKR=0.35E-01  KF=0.1E-14
+NC=1.7  FC=0.50  RBM=1.4  IRB=0.50E-02  XCJC=0.5 )
.ENDS
**********
*SRC=2N6618;QN6618;BJTs NPN;RF;10V 3mA
*SYM=RFNBJT
* MOTOROLA 2N6618  10 V  3 MA
.SUBCKT QN6618 1 2 3
LC 1 4 0.058E-9
LB 2 6 0.236E-9
LE 5 3 0.348E-9
CC 4 3 0.646E-12
CB 4 6 0.105E-12
Q1 4 6 5 QR36
.MODEL QR36 NPN ( BF=110  VAF=160  VAR=16.0  RC=5.8 RB=1.2
+RE=.014  IKF=0.14E-01  ISE=0.18E-14  TF=0.111E-10
+TR=0.80E-09  ITF=0.40E-02  VTF=0.66E+01  CJC=0.265E-12
+CJE=0.468E-12  XTI=3.0  NE=1.5  ISC=0.60E-15  EG=1.11
+XTB=1.5  BR=2.86  VJC=0.75  VJE=0.75  IS=0.20E-15
+MJC=0.33  MJE=0.33  XTF=4.0  IKR=0.14E-01  KF=0.1E-14
+NC=1.7  FC=0.50  RBM=.8  IRB=0.20E-02  XCJC=0.5 )
.ENDS
**********
*SRC=2N6679;QN6679;BJTs NPN;RF;15V 25mA
*SYM=RFNBJT
* MOTOROLA 2N6679  15 V  25 MA
.SUBCKT QN6679 1 2 3
LC 1 4 0.102E-9
LB 2 6 0.871E-9
LE 5 3 0.462E-9
CC 4 3 0.521E-12
CB 4 6 0.057E-12
Q1 4 6 5 QR37
.MODEL QR37 NPN ( BF=110  VAF=160  VAR=16.0  RC=3.44 RB=.19
+RE=.004  IKF=0.49E-01  ISE=0.63E-14  TF=0.111E-10
+TR=0.80E-09  ITF=0.31E-01  VTF=0.66E+01  CJC=0.464E-12
+CJE=1.968E-12  XTI=3.0  NE=1.5  ISC=0.21E-14  EG=1.11 PTF=45
+XTB=1.5  BR=2.86  VJC=0.75  VJE=0.75  IS=0.70E-15
+MJC=0.33  MJE=0.33  XTF=4.0  IKR=0.49E-01  KF=0.1E-14
+NC=1.7  FC=0.50  RBM=.13  IRB=0.70E-02  XCJC=0.541 )
.ENDS
**********
*SRC=TRW52001;TRW52001;BJTs NPN;RF;20V 220mA
*SYM=RFNBJT
* MOTOROLA TRW52001  20 V  220 MA
.SUBCKT TRW52001 1 2 3
LC 1 4 0.426E-9
LB 2 6 0.776E-9
LE 5 3 0.386E-9
CC 4 3 0.103E-12
CB 4 6 0.067E-12
Q1 4 6 5 QR57