*****************************************************************
* SIEMENS Small Signal Semiconductors                           *
* SPICE Library Version 4.0                 11.09.1996          *
*                                                               *
* This library contains the following SIEMENS Diodes:           *
*                                                               *
*       BAS40           BAS70           BAS125                  *
*       BAT62           BAT68           BAT18                   *
*       BA582           BA592           BB804                   *
*       BAS116          BAS16           BAS21                   *
*       BAT64           BAW56           BAW58                   *
*       BB814           BB515           BAT17                   *
*       BAT14           BAT15                                   *
*                                                               *
* Reproduced with permission from Siemens AG                    *
*                                                               *
*  Note: the model and part numbers have been given a suffix    *
*  of 's' in order to designate that they are from Siemens      *
*****************************************************************
*SRC=BAT17s;BAT17s;Diodes;Schottky;Siemens
.MODEL BAT17s D(IS=4n RS=3.3 N=1.03 XTI=2 EG=.65
+ CJO=415f M=.156 VJ=.115 FC=.5 BV=12 IBV=5U TT=25p)
* Chip parameters; for higher frequencies package must be added
*******
*SRC=BAT15s;BAT15s;Diodes;Schottky;Siemens
.MODEL BAT15s D(IS=130n RS=4.5 N=1.08 XTI=1.8 EG=.68
+ CJO=260f M=.047 VJ=.11 FC=.5 BV=4 IBV=10U TT=25p)
* Chip parameters for one chip; package must be added
* Valid for all Types: BAT15-099R, BAT15-099, BAT15-03W, BAT15-04,...
*******
*SRC=BAT14s;BAT14s;Diodes;Schottky;Siemens
.MODEL BAT14s D(IS=77p RS=4 N=1.027 XTI=1.8 EG=.68
+ CJO=270f M=.078 VJ=.25 FC=.5 BV=4 IBV=5U TT=25p)
* Chip parameters for one chip; package must be added
* Valid for all Types: BAT14-099R, BAT14-099, BAT14-03W, BAT14-04,...
*******
*** DIODE MODELS INCLUDING PACKAGE CAPACITANCE ******************
*******
*SRC=BAS40s;BAS40s;Diodes;Schottky;Siemens
.MODEL BAS40s   D(IS=8N RS=7.8 N=1.04 XTI=1.8 EG=.68 
+ CJO=3P M=.42 VJ=.4 FC=.5 BV=40 IBV=100n TT=25P)
* ISR=5n NR=1k IKF=10m
* for 27C reverse current simulation use: GMIN=1e-9
* 17.12.1993 SIEMENS PD1 KURTH
*******
*SRC=BAS70s;BAS70s;Diodes;Schottky;Siemens
.MODEL BAS70s   D(IS=3N N=1.06 RS=29 XTI=1.8 EG=.68 
+ CJO=1.55P M=.29 VJ=.36 FC=.5 BV=70 IBV=100n TT=25P)
* ISR=2.5n NR=1k IKF=5m
* for 27C reverse current simulation use: GMIN=.5e-9
* 17.12.1993 SIEMENS PD1 KURTH
*******
*SRC=BAS125s;BAS125s;Diodes;Schottky;Siemens
.MODEL BAS125s   D(IS=1.45N RS=12 N=1.03 XTI=1.6 EG=.68
+ CJO=.95P M=.2 VJ=.24 FC=.5 BV=25 IBV=100n TT=25P)
* ISR=15n NR=4k IKF=10m
* for 27C reverse current simulation use GMIN=1e-9
* 17.12.1993 SIEMENS PD1 KURTH
*******
*SRC=BAT62s;BAT62s;Diodes;Schottky;Siemens
.MODEL BAT62s   D(IS=120N RS=200 N=1.04 XTI=1.8 EG=.68
+ CJO=.35P M=.14 VJ=.4 FC=.5 BV=40 IBV=5U TT=25P)
* for 27C reverse current simulation use: GMIN=3e-8
* 20.12.1993 SIEMENS PD1 KURTH
*******
*SRC=BAT68s;BAT68s;Diodes;Schottky;Siemens
.MODEL BAT68s   D(IS=8N RS=2 N=1.05 XTI=1.8 EG=.68
+ CJO=.77P M=.075 VJ=.1 FC=.5 BV=8 IBV=1U TT=25P)
* 23.12.1993 SIEMENS PD1 KURTH
*******
*SRC=BAT18s;BAT18s;Diodes;Schottky;Siemens
.MODEL BAT18s D (IS=185F RS=.15 N=1.305 BV=70 IBV=.1N
+ CJO=1.17P VJ=.12 M=.096 TT=125N)
* SIEMENS 40 Volt 130ns  Si-PIN-Switch  17-12-1993 Kurth
*******
*SRC=BA582s;BA582s;Diodes;Schottky;Siemens
.MODEL BA582s D (IS=185F RS=.15 N=1.305 BV=70 IBV=.1N
+ CJO=1.17P VJ=.12 M=.096 TT=125N)
* SIEMENS 40 Volt 130ns  Si-PIN-Switch  17-12-1993 Kurth
*******
*SRC=BA592s;BA592s;Diodes;Schottky;Siemens
.MODEL BA592s D (IS=185F RS=.15 N=1.305 BV=70 IBV=.1N
+ CJO=1.17P VJ=.12 M=.096 TT=125N)
* SIEMENS 40 Volt 130ns  Si-PIN-Switch  17-12-1993 Kurth
*******
*SRC=BB804s;BB804s;Diodes;Schottky;Siemens
.MODEL BB804s D(IS=48F N=1.13 RS=.18 XTI=3 EG=1.11 CJO=80.6P
+ M=.47 VJ=.8 FC=.5 BV=20 IBV=.1U TT=137N)
* T=27C 
* BB804-typical (group 2), SIEMENS HL EH PD1 KTH 25.07.94
*******
*SRC=BB814s;BB814s;Diodes;Schottky;Siemens
.MODEL BB814s D(IS=7f N=1.012 RS=.18 XTI=3 EG=1.11 CJO=83.9p M=.775
+ VJ=1.6 FC=.5 BV=20 IBV=100n TT=137n)
*  IKF=1 ISR=10p NR=1K
* hyperabrupt Diode, M=f(VR)! C-curve approximated between VR=1..9V
* BB814-typical, SIEMENS HL EH PD1 KTH 
*******
*SRC=BB515s;BB515s;Diodes;Schottky;Siemens
.MODEL BB515s D (IS=2F RS=.05 N=1.045 BV=32 IBV=100N XTI=3 EG=1.11
+ CJO=25.5P VJ=2.5 M=1 TT=14.4N)
* Hyperabrupt Diode, M = f(VR)! Above approximation for Capacitance 
* in VR-range 1..28V
* VR-range 0..6V: CJO=25.82P VJ=1.59 M=0.722
* VR-range 0..5V: CJO=25.86P VJ=1.38 M=0.66
* VR-range 0..3V: CJO=25.87P VJ=1.167 M=0.59
* Reverse current simulation: ISR=4.1p NR=2
* For Capacitance Q-factor add RS=0.5 externally or (degrades VF/IF) 
* internally
* chip D190. 25.08.1994 SIEMENS HL EH PD1 Kurth
*******
*SRC=BAS116s;BAS116s;Diodes;Schottky;Siemens
.MODEL BAS116s D(
+       AF= 1.00E+00    BV= 7.50E+01   CJO= 1.83E-12    EG= 1.11E+00
+       FC= 5.00E-01   IBV= 1.00E-04    IS= 1.48E-13    KF= 0.00E+00
+        M= 2.62E-01     N= 1.33E+00    RS= 8.48E-01    TT= 8.66E-09
+       VJ= 3.44E-01   XTI= 3.00E+00) 
*******
*SRC=BAS16s;BAS16s;Diodes;Schottky;Siemens
.MODEL BAS16s D(
+       AF= 1.00E+00    BV= 7.50E+01   CJO= 6.87E-13    EG= 1.11E+00
+       FC= 5.00E-01   IBV= 1.00E-04    IS= 2.07E-09    KF= 0.00E+00
+        M= 1.00E-01     N= 1.83E+00    RS= 1.02E+00    TT= 8.66E-09
+       VJ= 2.00E+00   XTI= 3.00E+00)
*******
*SRC=BAS21s;BAS21s;Diodes;Schottky;Siemens
.MODEL BAS21s D(
+       AF= 1.00E+00    BV= 2.50E+02   CJO= 6.64E-13    EG= 1.11E+00
+       FC= 5.00E-01   IBV= 1.00E-04    IS= 6.42E-09    KF= 0.00E+00
+        M= 1.00E-01     N= 1.98E+00    RS= 9.12E-01    TT= 7.21E-08
+       VJ= 2.00E+00   XTI= 3.00E+00)
*******
*SRC=BAT64s;BAT64s;Diodes;Schottky;Siemens
.MODEL BAT64s D(
+       AF= 1.00E+00    BV= 3.00E+01   CJO= 6.59E-12    EG= 1.11E+00
+       FC= 5.00E-01   IBV= 1.00E-04    IS= 6.97E-09    KF= 0.00E+00
+        M= 3.96E-01     N= 1.01E+00    RS= 1.84E+00    TT= 1.00E-10
+       VJ= 3.42E-01   XTI= 3.00E+00)
*******
*SRC=BAW56s;BAW56s;Diodes;Schottky;Siemens
.MODEL BAW56s D(
+       AF= 1.00E+00    BV= 7.00E+01   CJO= 1.76E-12    EG= 1.11E+00
+       FC= 5.00E-01   IBV= 1.00E-04    IS= 4.90E-10    KF= 0.00E+00
+        M= 2.66E-01     N= 1.64E+00    RS= 1.32E+00    TT= 8.66E-09
+       VJ= 6.26E-01   XTI= 3.00E+00)
*******
*SRC=BAW78Ds;BAW78Ds;Diodes;Schottky;Siemens
.MODEL BAW78Ds D(
+       AF= 1.00E+00    BV= 4.00E+02   CJO= 5.40E-12    EG= 1.11E+00
+       FC= 5.00E-01   IBV= 1.00E-04    IS= 3.08E-11    KF= 0.00E+00
+        M= 4.62E-01     N= 1.51E+00    RS= 4.04E-01    TT= 1.44E-06
+       VJ= 8.00E-01   XTI= 3.00E+00)
*******
*SRC=BAR64s;BAR64s;Diodes;Schottky;Siemens
.MODEL BAR64s D(IS=880p RS=.9 N=1.305 BV=70 IBV=.1N
+ CJO=0.33P VJ=.8 M=.2 TT=1.25u)
* SIEMENS 40 Volt 125ns  Si-PIN-Switch  17-03-1996 Moschovis
*******
*SRC=BB535s;BB535s;Diodes;Schottky;Siemens
.MODEL BB535s D(IS=1.75E-15 N=1.043 RS=60E-3 XTI=3 EG=1.11 CJO=25.31E-12
+ M=1.064 VJ=3.022 FC=.5 BV=32 IBV=100E-9 TT=120E-9)
* hyperabrupt Diode, M=f(VR)! C-curve approximated between VR=1..28V
* VR range 0..6V: CJO=26.65pF VJ=1.51 M=0.69
* VR range 0..4V: CJO=26.7pF VJ=1.28 M=0.62
* Model includes Case capacitance Cc=0.11pF
* 07.09.96 SIEMENS PD1 Moschovis
*******
*SRC=BB545s;BB545s;Diodes;Schottky;Siemens
.MODEL BB545s D(IS=110.11E-15 RS=0.24545 N=1.2034 XTI=3 EG=1.11
+CJo=38.264P M=0.87698 Vj=0.91294 FC=0 BV=30 IBV=5E-6 TT=80N)
* Model includes Case capacitance Cc=0.11pF
* 23.10.96 SIMENS HL EH PD 1 Moschovis
*******
*SRC=BA595s;BA595s;Diodes;Schottky;Siemens
.MODEL BA595s D(IS=1.355n RS=2.6 N=2.04 BV=50 IBV=5u
+ CJO=0.35P VJ=.8 M=1.2 TT=1.6u)
* SIEMENS 50 Volt 1.6us  Si-PIN-Switch  17-03-1997 Moschovis
*******
*SRC=BB639s;BB639s;Diodes;Schottky;Siemens
.MODEL BB639s D(IS=4E-15 N=1.035 RS=.12 XTI=3 EG=1.11 CJO=55.88E-12
+ M=1.286 VJ=2.922 FC=.5 BV=32 IBV=100E-9 TT=160E-9)
* hyperabrupt Diode, M=f(VR)! C-curve approximated between VR=1..28V
* VR range 0..6V: CJO=55.9pF VJ=2.08 M=0.94
* VR range 0..4V: CJO=55.9pF VJ=1.71 M=0.81
* 07.09.95 SIEMENS PD1
* Model includes Case capacitance Cc=0.11pF
*******
*SRC=BB833s;BB833s;Diodes;Schottky;Siemens
.MODEL BB833s D (IS=42.156E-15 N=1.1718 RS=.10785 XTI=3 EG=1.11 CJO=29.033E-12
+ M=0.90022 VJ=.39089 FC=.5 BV=32 IBV=5E-6 TT=120E-9)
*******
*SRC=BB914s;BB914s;Diodes;Schottky;Siemens
.MODEL BB914s D(IS=10.00E-15 N=1.020 RS=.28 IKF=0 XTI=3 EG=1.11
+ CJO=75.54E-12 M=1.161 VJ=3.445 FC=.5 ISR=100E-12 NR=2 BV=20 IBV=100E-9
+ TT=137.0E-9)
* BB914 - typical , SIEMENS HL EH PD 1 MOSCHOVIS
*******
*SRC=BAT63s;BAT63s;Diodes;Schottky;Siemens
.MODEL BAT63s D(IS=656N RS=1.1 N=1.041 XTI=2.8 EG=1.1
+ CJO=.4814P M=.10 VJ=1.249 FC=.5 BV=4 IBV=5U TT=25P)
* 20.03.1997 SIEMENS PD1 Moschovis
*******
*SRC=BAT65s;BAT65s;Diodes;Schottky;Siemens
.MODEL BAT65s D(Is=80n N=1.02 Rs=0.2152 Xti=5 Eg=1.11 Cjo=31.4p M=0.6196
+ Vj=.8 Fc=.5 Bv=40 Ibv=100u TT=60p)
* Case SOT223, single diode
* 26.09.1996 SIEMENS HL EH PD 1 Moschovis
*******
*SRC=BAT66s;BAT66s;Diodes;Schottky;Siemens
.MODEL BAT66s D(Is=243.5n N=1.001 Rs=0.1401 Xti=3 Eg=1.11 Cjo=170.5p M=0.548
+ Vj=.4803 Fc=.5 Bv=30 Ibv=100u TT=30p)
* Case SOT223, single diode
* 26.09.1996 SIEMENS HL EH PD 1 Moschovis
*******

