***************************************************************
* SIEMENS Small Signal Semiconductors                         *
* SPICE Library Version 4.00                 11.09.1996       *
*                                                             *
* For frequencies above 100 MHz up to 6 GHz the package       *
* equivalent circuits in subdirectory                         *
* \EHDATA\NL-BJT\PACKAGES\ should be used according           *
* to \EHDATA\NL-BJT\ATTACH.TXT                                *
*                                                             *
* This library contains the following SIEMENS RF-             *
* and SIEGET(R)25-Transistors:                                *
*                                                             *
*  BFG19S     |  BFP183     |  BFR92P     |  BFR194           *
*  BFG135A    |  BFP183W    |  BFR92W     |  BFR280           *
*  BFG193     |  BFP193     |  BFR93A     |  BFR280W          *
*  BFG194     |  BFP193W    |  BFR93AW    |  BFS17P           *
*  BFG196     |  BFP194     |  BFR106     |  BFS17S           *
*  BFG235     |  BFP196     |  BFR180     |  BFS17W           *
*  BFP81      |  BFP196W    |  BFR180W    |  BFS480           *
*  BFP93A     |  BFP280     |  BFR181     |  BFS481           *
*  BFP136W    |  BFP280W    |  BFR181W    |  BFS482           *
*  BFP180     |  BFP405     |  BFR182     |  BFS483           *
*  BFP180W    |  BFP420     |  BFR182W    |  BFT92            *
*  BFP181     |  BFP450     |  BFR183     |  BFT92W           *
*  BFP181W    |  BFP490     |  BFR183W    |  BFT93            *
*  BFP182     |  BFQ81      |  BFR193     |                   *
*  BFP182W    |  BFR35AP    |  BFR193W    |                   *
*                                                             *
* (C) 1996 SIEMENS AG                                         *
*                                                             *
* Reproduced with permission from Siemens AG                  *
*                                                             *
*  Note: the model and part numbers have been given a suffix  *
*  of 's' in order to designate that they are from Siemens    *
***************************************************************
*
***********
*SRC=BFP81s;BFP81s;BJTs NPN;RF;Siemens
*SYM=RFNBJT
.SUBCKT BFP81s 200 100 300
*SOT143-1
Q1 2 1 3 BFP81x
LBI 1 10 0.89NH
*LCI 2 20 0.0NH
LEI 3 30 0.4NH
CCB 10 20 15FF
CBE 10 30 189FF
CCE 20 30 187FF
LCO 200 2 0.42NH
LBO 100 10 0.73NH
LEO 300 30 0.15NH
.ENDS
*INCLUDE S_RFBJT.LIB
**********
*SRC=BFP93As;BFP93As;BJTs NPN;RF;Siemens
*SYM=RFNBJT
.SUBCKT BFP93As 200 100 300
*SOT143-1
Q1 2 1 3 BFP93Ax
LBI 1 10 0.89NH
*LCI 2 20 0.0NH
LEI 3 30 0.4NH
CCB 10 20 15FF
CBE 10 30 189FF
CCE 20 30 187FF
LCO 200 2 0.42NH
LBO 100 10 0.73NH
LEO 300 30 0.15NH
.ENDS
*INCLUDE S_RFBJT.LIB
**********
*SRC=BFP180s;BFP180s;BJTs NPN;RF;Siemens
*SYM=RFNBJT
.SUBCKT BFP180s 200 100 300
*SOT143-1
Q1 2 1 3 BFP180x
LBI 1 10 0.89NH
*LCI 2 20 0.0NH
LEI 3 30 0.4NH
CCB 10 20 15FF
CBE 10 30 189FF
CCE 20 30 187FF
LCO 200 2 0.42NH
LBO 100 10 0.73NH
LEO 300 30 0.15NH
.ENDS
*INCLUDE S_RFBJT.LIB
**********
*SRC=BFP181s;BFP181s;BJTs NPN;RF;Siemens
*SYM=RFNBJT
.SUBCKT BFP181s 200 100 300
*SOT143-1
Q1 2 1 3 BFP181x
LBI 1 10 0.89NH
*LCI 2 20 0.0NH
LEI 3 30 0.4NH
CCB 10 20 15FF
CBE 10 30 189FF
CCE 20 30 187FF
LCO 200 2 0.42NH
LBO 100 10 0.73NH
LEO 300 30 0.15NH
.ENDS
*INCLUDE S_RFBJT.LIB
**********
*SRC=BFP182s;BFP182s;BJTs NPN;RF;Siemens
*SYM=RFNBJT
.SUBCKT BFP182s 200 100 300
*SOT143-1
Q1 2 1 3 BFP182x
LBI 1 10 0.89NH
*LCI 2 20 0.0NH
LEI 3 30 0.4NH
CCB 10 20 15FF
CBE 10 30 189FF
CCE 20 30 187FF
LCO 200 2 0.42NH
LBO 100 10 0.73NH
LEO 300 30 0.15NH
.ENDS
*INCLUDE S_RFBJT.LIB
**********
*SRC=BFP183s;BFP183s;BJTs NPN;RF;Siemens
*SYM=RFNBJT
.SUBCKT BFP183s 200 100 300
*SOT143-1
Q1 2 1 3 BFP183x
LBI 1 10 0.89NH
*LCI 2 20 0.0NH
LEI 3 30 0.4NH
CCB 10 20 15FF
CBE 10 30 189FF
CCE 20 30 187FF
LCO 200 2 0.42NH
LBO 100 10 0.73NH
LEO 300 30 0.15NH
.ENDS
*INCLUDE S_RFBJT.LIB
**********
*SRC=BFP280s;BFP280s;BJTs NPN;RF;Siemens
*SYM=RFNBJT
.SUBCKT BFP280s 200 100 300
*SOT143-1
Q1 2 1 3 BFP280x
LBI 1 10 0.89NH
*LCI 2 20 0.0NH
LEI 3 30 0.4NH
CCB 10 20 15FF
CBE 10 30 189FF
CCE 20 30 187FF
LCO 200 2 0.42NH
LBO 100 10 0.73NH
LEO 300 30 0.15NH
.ENDS
*INCLUDE S_RFBJT.LIB
**********
*SRC=BFP193s;BFP193s;BJTs NPN;RF;Siemens
*SYM=RFNBJT
.SUBCKT BFP193s 200 100 300
*SOT143-2
Q1 2 1 3 BFP193x
LBI 1 10 0.84NH
LCI 2 20 0.07NH
LEI 3 30 0.31NH
CCB 10 20 19FF
CCE 20 30 281FF
CBE 10 30 145FF
LBO 10 100 0.65NH
LCO 20 200 0.42NH
LEO 30 300 0.14NH
.ENDS
*INCLUDE S_RFBJT.LIB
**********
*SRC=BFP194s;BFP194s;BJTs PNP;RF;Siemens
*SYM=RFPBJT
.SUBCKT BFP194s 200 100 300
*SOT143-2
Q1 2 1 3 BFP194x
LBI 1 10 0.84NH
LCI 2 20 0.07NH
LEI 3 30 0.31NH
CCB 10 20 19FF
CCE 20 30 281FF
CBE 10 30 145FF
LBO 10 100 0.65NH
LCO 20 200 0.42NH
LEO 30 300 0.14NH
.ENDS
*INCLUDE S_RFBJT.LIB
**********
*SRC=BFP196s;BFP196s;BJTs NPN;RF;Siemens
*SYM=RFNBJT
.SUBCKT BFP196s 200 100 300
*SOT143-2
Q1 2 1 3 BFP196x
LBI 1 10 0.84NH
LCI 2 20 0.07NH
LEI 3 30 0.31NH
CCB 10 20 19FF
CCE 20 30 281FF
CBE 10 30 145FF
LBO 10 100 0.65NH
LCO 20 200 0.42NH
LEO 30 300 0.14NH
.ENDS
*INCLUDE S_RFBJT.LIB
**********
*SRC=BFG19Ss;BFG19Ss;BJTs NPN;RF;Siemens
*SYM=RFNBJT
.SUBCKT BFG19Ss 200 100 300
*SOT223-1
Q1 2 1 3 BFG19Sx
LBI 1 10 0.94NH
LCI 2 20 0.92NH
LEI 3 30 0.88NH
CCB 10 20 10FF
CCE 20 30 338FF
CBE 10 30 200FF
CB  1  3  67FF
CC  2  3  176FF
LBO 10 100 0.95NH
LCO 20 200 0.33NH
LEO 30 300 0.05NH
.ENDS
*INCLUDE S_RFBJT.LIB
**********
*SRC=BFG193s;BFG193s;BJTs NPN;RF;Siemens
*SYM=RFNBJT
.SUBCKT BFG193s 200 100 300
*SOT223-1
Q1 2 1 3 BFG193x
LBI 1 10 0.94NH
LCI 2 20 0.92NH
LEI 3 30 0.88NH
CCB 10 20 10FF
CCE 20 30 338FF
CBE 10 30 200FF
CB  1  3  67FF
CC  2  3  176FF
LBO 10 100 0.95NH
LCO 20 200 0.33NH
LEO 30 300 0.05NH
.ENDS
*INCLUDE S_RFBJT.LIB
**********
*SRC=BFG194s;BFG194s;BJTs PNP;RF;Siemens
*SYM=RFPBJT
.SUBCKT BFG194s 200 100 300
*SOT223-1
Q1 2 1 3 BFG194x
LBI 1 10 0.94NH
LCI 2 20 0.92NH
LEI 3 30 0.88NH
CCB 10 20 10FF
CCE 20 30 338FF
CBE 10 30 200FF
CB  1  3  67FF
CC  2  3  176FF
LBO 10 100 0.95NH
LCO 20 200 0.33NH
LEO 30 300 0.05NH
.ENDS
*INCLUDE S_RFBJT.LIB
**********
*SRC=BFG196s;BFG196s;BJTs NPN;RF;Siemens
*SYM=RFNBJT
.SUBCKT BFG196s 200 100 300
*SOT223-1
Q1 2 1 3 BFG196x
LBI 1 10 0.94NH
LCI 2 20 0.92NH
LEI 3 30 0.88NH
CCB 10 20 10FF
CCE 20 30 338FF
CBE 10 30 200FF
CB  1  3  67FF
CC  2  3  176FF
LBO 10 100 0.95NH
LCO 20 200 0.33NH
LEO 30 300 0.05NH
.ENDS
*INCLUDE S_RFBJT.LIB
**********
*SRC=BFG135As;BFG135As;BJTs NPN;RF;Siemens
*SYM=RFNBJT
.SUBCKT BFG135As 200 100 300
*SOT223-2
Q1 2 1 3 BFG135Ax
LBI 1 10 1.02NH
LCI 2 20 1.01NH
LEI 3 30 0.67NH
CCB 10 20   8FF
CCE 20 30 311FF
CBE 10 30 190FF
CB  1  3  95FF
CC  2  3  228FF
LBO 10 100 0.9NH
LCO 20 200 0.25NH
LEO 30 300 0.05NH
.ENDS
*INCLUDE S_RFBJT.LIB
**********
*SRC=BFG235s;BFG235s;BJTs NPN;RF;Siemens
*SYM=RFNBJT
.SUBCKT BFG235s 200 100 300
*SOT223-3
XQ1 2 1 3 BFG235x
LBI 1 10 0.57NH
LCI 2 20 1.01NH
LEI 3 300 0.64NH
CCB 10 20 14FF
CCE 20 300 271FF
CBE 10 300 187FF
CB  1  3  197FF
CC  2  3  296FF
LBO 10 100 0.84NH
LCO 20 200 0.15NH
*LEO 30 300 0.00NH
.ENDS
*INCLUDE S_RFBJT.LIB
**********
*SRC=BFR35APs;BFR35APs;BJTs NPN;RF;Siemens
*SYM=RFNBJT
.SUBCKT BFR35APs 200 100 300
*SOT23
Q1 2 1 3 BFR35APx
LBI 1 10 0.85NH
*LCI 2 20 0NH
LEI 3 30 0.69NH
CCB 10 2 84FF
CCE 2 30 165FF
CBE 10 30 73FF
LBO 10 100 0.51NH
LCO 2 200 0.49NH
LEO 30 300 0.61NH
.ENDS
*INCLUDE S_RFBJT.LIB
**********
*SRC=BFQ81s;BFQ81s;BJTs NPN;RF;Siemens
*SYM=RFNBJT
.SUBCKT BFQ81s 200 100 300
*SOT23
Q1 2 1 3 BFQ81x
LBI 1 10 0.85NH
*LCI 2 20 0NH
LEI 3 30 0.69NH
CCB 10 2 84FF
CCE 2 30 165FF
CBE 10 30 73FF
LBO 10 100 0.51NH
LCO 2 200 0.49NH
LEO 30 300 0.61NH
.ENDS
*INCLUDE S_RFBJT.LIB
**********
*SRC=BFR92Ps;BFR92Ps;BJTs NPN;RF;Siemens
*SYM=RFNBJT
.SUBCKT BFR92Ps 200 100 300
*SOT23
Q1 2 1 3 BFR92Px
LBI 1 10 0.85NH
*LCI 2 20 0NH
LEI 3 30 0.69NH
CCB 10 2 84FF
CCE 2 30 165FF
CBE 10 30 73FF
LBO 10 100 0.51NH
LCO 2 200 0.49NH
LEO 30 300 0.61NH
.ENDS
*INCLUDE S_RFBJT.LIB
**********
*SRC=BFR93As;BFR93As;BJTs NPN;RF;Siemens
*SYM=RFNBJT
.SUBCKT BFR93As 200 100 300
*SOT23
Q1 2 1 3 BFR93Ax
LBI 1 10 0.85NH
*LCI 2 20 0NH
LEI 3 30 0.69NH
CCB 10 2 84FF
CCE 2 30 165FF
CBE 10 30 73FF
LBO 10 100 0.51NH
LCO 2 200 0.49NH
LEO 30 300 0.61NH
.ENDS
*INCLUDE S_RFBJT.LIB
**********
*SRC=BFR106s;BFR106s;BJTs NPN;RF;Siemens
*SYM=RFNBJT
.SUBCKT BFR106s 200 100 300
*SOT23
Q1 2 1 3 BFR106x
LBI 1 10 0.85NH
*LCI 2 20 0NH
LEI 3 30 0.69NH
CCB 10 2 84FF
CCE 2 30 165FF
CBE 10 30 73FF
LBO 10 100 0.51NH
LCO 2 200 0.49NH
LEO 30 300 0.61NH
.ENDS
*INCLUDE S_RFBJT.LIB
**********
*SRC=BFR180s;BFR180s;BJTs NPN;RF;Siemens
*SYM=RFNBJT
.SUBCKT BFR180s 200 100 300
*SOT23
Q1 2 1 3 BFR180x
LBI 1 10 0.85NH
*LCI 2 20 0NH
LEI 3 30 0.69NH
CCB 10 2 84FF
CCE 2 30 165FF
CBE 10 30 73FF
LBO 10 100 0.51NH
LCO 2 200 0.49NH
LEO 30 300 0.61NH
.ENDS
*INCLUDE S_RFBJT.LIB
**********
*SRC=BFR181s;BFR181s;BJTs NPN;RF;Siemens
*SYM=RFNBJT
.SUBCKT BFR181s 200 100 300
*SOT23
Q1 2 1 3 BFR181x
LBI 1 10 0.85NH
*LCI 2 20 0NH
LEI 3 30 0.69NH
CCB 10 2 84FF
CCE 2 30 165FF
CBE 10 30 73FF
LBO 10 100 0.51NH
LCO 2 200 0.49NH
LEO 30 300 0.61NH
.ENDS
*INCLUDE S_RFBJT.LIB
**********
*SRC=BFR182s;BFR182s;BJTs NPN;RF;Siemens
*SYM=RFNBJT
.SUBCKT BFR182s 200 100 300
*SOT23
Q1 2 1 3 BFR182x
LBI 1 10 0.85NH
*LCI 2 20 0NH
LEI 3 30 0.69NH
CCB 10 2 84FF
CCE 2 30 165FF
CBE 10 30 73FF
LBO 10 100 0.51NH
LCO 2 200 0.49NH
LEO 30 300 0.61NH
.ENDS
*INCLUDE S_RFBJT.LIB
**********
*SRC=BFR183s;BFR183s;BJTs NPN;RF;Siemens
*SYM=RFNBJT
.SUBCKT BFR183s 200 100 300
*SOT23
Q1 2 1 3 BFR183x
LBI 1 10 0.85NH
*LCI 2 20 0NH
LEI 3 30 0.69NH
CCB 10 2 84FF
CCE 2 30 165FF
CBE 10 30 73FF
LBO 10 100 0.51NH
LCO 2 200 0.49NH
LEO 30 300 0.61NH
.ENDS
*INCLUDE S_RFBJT.LIB
**********
*SRC=BFR193s;BFR193s;BJTs NPN;RF;Siemens
*SYM=RFNBJT
.SUBCKT BFR193s 200 100 300
*SOT23
Q1 2 1 3 BFR193x
LBI 1 10 0.85NH
*LCI 2 20 0NH
LEI 3 30 0.69NH
CCB 10 2 84FF
CCE 2 30 165FF
CBE 10 30 73FF
LBO 10 100 0.51NH
LCO 2 200 0.49NH
LEO 30 300 0.61NH
.ENDS
*INCLUDE S_RFBJT.LIB
**********
*SRC=BFR194s;BFR194s;BJTs PNP;RF;Siemens
*SYM=RFPBJT
.SUBCKT BFR194s 200 100 300
*SOT23
Q1 2 1 3 BFR194x
LBI 1 10 0.85NH
*LCI 2 20 0NH
LEI 3 30 0.69NH
CCB 10 2 84FF
CCE 2 30 165FF
CBE 10 30 73FF
LBO 10 100 0.51NH
LCO 2 200 0.49NH
LEO 30 300 0.61NH
.ENDS
*INCLUDE S_RFBJT.LIB
**********
*SRC=BFR280s;BFR280s;BJTs NPN;RF;Siemens
*SYM=RFNBJT
.SUBCKT BFR280s 200 100 300
*SOT23
Q1 2 1 3 BFR280x
LBI 1 10 0.85NH
*LCI 2 20 0NH
LEI 3 30 0.69NH
CCB 10 2 84FF
CCE 2 30 165FF
CBE 10 30 73FF
LBO 10 100 0.51NH
LCO 2 200 0.49NH
LEO 30 300 0.61NH
.ENDS
*INCLUDE S_RFBJT.LIB
**********
*SRC=BFS17Ps;BFS17Ps;BJTs NPN;RF;Siemens
*SYM=RFNBJT
.SUBCKT BFS17Ps 200 100 300
*SOT23
Q1 2 1 3 BFS17Px
LBI 1 10 0.85NH
*LCI 2 20 0NH
LEI 3 30 0.69NH
CCB 10 2 84FF
CCE 2 30 165FF
CBE 10 30 73FF
LBO 10 100 0.51NH
LCO 2 200 0.49NH
LEO 30 300 0.61NH
.ENDS
*INCLUDE S_RFBJT.LIB
**********
*SRC=BFT92s;BFT92s;BJTs PNP;RF;Siemens
*SYM=RFPBJT
.SUBCKT BFT92s 200 100 300
*SOT23
Q1 2 1 3 BFT92x
LBI 1 10 0.85NH
*LCI 2 20 0NH
LEI 3 30 0.69NH
CCB 10 2 84FF
CCE 2 30 165FF
CBE 10 30 73FF
LBO 10 100 0.51NH
LCO 2 200 0.49NH
LEO 30 300 0.61NH
.ENDS
*INCLUDE S_RFBJT.LIB
**********
*SRC=BFT93s;BFT93s;BJTs PNP;RF;Siemens
*SYM=RFPBJT
.SUBCKT BFT93s 200 100 300
*SOT23
Q1 2 1 3 BFT93x
LBI 1 10 0.85NH
*LCI 2 20 0NH
LEI 3 30 0.69NH
CCB 10 2 84FF
CCE 2 30 165FF
CBE 10 30 73FF
LBO 10 100 0.51NH
LCO 2 200 0.49NH
LEO 30 300 0.61NH
.ENDS
*INCLUDE S_RFBJT.LIB
**********
*SRC=BFR92Ws;BFR92Ws;BJTs NPN;RF;Siemens
*SYM=RFNBJT
.SUBCKT BFR92Ws 200 100 300
*SOT323
Q1 2 1 3 BFR92Wx
LBI 1 10 0.57NH
*LCI 2 20 0NH
LEI 3 30 0.43NH
CCB 10 2 101FF
CCE 2 30 175FF
CBE 10 30 61FF
LBO 10 100 0.4NH
LCO 2 200 0.41NH
LEO 30 300 0.5NH
.ENDS
*INCLUDE S_RFBJT.LIB
**********
*SRC=BFR93AWs;BFR93AWs;BJTs NPN;RF;Siemens
*SYM=RFNBJT
.SUBCKT BFR93AWs 200 100 300
*SOT323
Q1 2 1 3 BFR93AWx
LBI 1 10 0.57NH
*LCI 2 20 0NH
LEI 3 30 0.43NH
CCB 10 2 101FF
CCE 2 30 175FF
CBE 10 30 61FF
LBO 10 100 0.4NH
LCO 2 200 0.41NH
LEO 30 300 0.5NH
.ENDS
*INCLUDE S_RFBJT.LIB
**********
*SRC=BFR180Ws;BFR180Ws;BJTs NPN;RF;Siemens
*SYM=RFNBJT
.SUBCKT BFR180Ws 200 100 300
*SOT323
Q1 2 1 3 BFR180Wx
LBI 1 10 0.57NH
*LCI 2 20 0NH
LEI 3 30 0.43NH
CCB 10 2 101FF
CCE 2 30 175FF
CBE 10 30 61FF
LBO 10 100 0.4NH
LCO 2 200 0.41NH
LEO 30 300 0.5NH
.ENDS
*INCLUDE S_RFBJT.LIB
**********
*SRC=BFR181Ws;BFR181Ws;BJTs NPN;RF;Siemens
*SYM=RFNBJT
.SUBCKT BFR181Ws 200 100 300
*SOT323
Q1 2 1 3 BFR181Wx
LBI 1 10 0.57NH
*LCI 2 20 0NH
LEI 3 30 0.43NH
CCB 10 2 101FF
CCE 2 30 175FF
CBE 10 30 61FF
LBO 10 100 0.4NH
LCO 2 200 0.41NH
LEO 30 300 0.5NH
.ENDS
*INCLUDE S_RFBJT.LIB
**********
*SRC=BFR182Ws;BFR182Ws;BJTs NPN;RF;Siemens
*SYM=RFNBJT
.SUBCKT BFR182Ws 200 100 300
*SOT323
Q1 2 1 3 BFR182Wx
LBI 1 10 0.57NH
*LCI 2 20 0NH
LEI 3 30 0.43NH
CCB 10 2 101FF
CCE 2 30 175FF
CBE 10 30 61FF
LBO 10 100 0.4NH
LCO 2 200 0.41NH
LEO 30 300 0.5NH
.ENDS
*INCLUDE S_RFBJT.LIB
**********
*SRC=BFR183Ws;BFR183Ws;BJTs NPN;RF;Siemens
*SYM=RFNBJT
.SUBCKT BFR183Ws 200 100 300
*SOT323
Q1 2 1 3 BFR183Wx
LBI 1 10 0.57NH
*LCI 2 20 0NH
LEI 3 30 0.43NH
CCB 10 2 101FF
CCE 2 30 175FF
CBE 10 30 61FF
LBO 10 100 0.4NH
LCO 2 200 0.41NH
LEO 30 300 0.5NH
.ENDS
*INCLUDE S_RFBJT.LIB
**********
*SRC=BFR193Ws;BFR193Ws;BJTs NPN;RF;Siemens
*SYM=RFNBJT
.SUBCKT BFR193Ws 200 100 300
*SOT323
Q1 2 1 3 BFR193Wx
LBI 1 10 0.57NH
*LCI 2 20 0NH
LEI 3 30 0.43NH
CCB 10 2 101FF
CCE 2 30 175FF
CBE 10 30 61FF
LBO 10 100 0.4NH
LCO 2 200 0.41NH
LEO 30 300 0.5NH
.ENDS
*INCLUDE S_RFBJT.LIB
**********
*SRC=BFR280Ws;BFR280Ws;BJTs NPN;RF;Siemens
*SYM=RFNBJT
.SUBCKT BFR280Ws 200 100 300
*SOT323
Q1 2 1 3 BFR280Wx
LBI 1 10 0.57NH
*LCI 2 20 0NH
LEI 3 30 0.43NH
CCB 10 2 101FF
CCE 2 30 175FF
CBE 10 30 61FF
LBO 10 100 0.4NH
LCO 2 200 0.41NH
LEO 30 300 0.5NH
.ENDS
*INCLUDE S_RFBJT.LIB
**********
*SRC=BFS17Ws;BFS17Ws;BJTs NPN;RF;Siemens
*SYM=RFNBJT
.SUBCKT BFS17Ws 200 100 300
*SOT323
Q1 2 1 3 BFS17Wx
LBI 1 10 0.57NH
*LCI 2 20 0NH
LEI 3 30 0.43NH
CCB 10 2 101FF
CCE 2 30 175FF
CBE 10 30 61FF
LBO 10 100 0.4NH
LCO 2 200 0.41NH
LEO 30 300 0.5NH
.ENDS
*INCLUDE S_RFBJT.LIB
**********
*SRC=BFT92Ws;BFT92Ws;BJTs PNP;RF;Siemens
*SYM=RFPBJT
.SUBCKT BFT92Ws 200 100 300
*SOT323
Q1 2 1 3 BFT92Wx
LBI 1 10 0.57NH
*LCI 2 20 0NH
LEI 3 30 0.43NH
CCB 10 2 101FF
CCE 2 30 175FF
CBE 10 30 61FF
LBO 10 100 0.4NH
LCO 2 200 0.41NH
LEO 30 300 0.5NH
.ENDS
*INCLUDE S_RFBJT.LIB
**********
*SRC=BFP180Ws;BFP180Ws;BJTs NPN;RF;Siemens
*SYM=RFNBJT
.SUBCKT BFP180Ws 200 100 300
*SOT343-1
Q1 2 1 3 BFP180Wx
LBI 1 10 0.43NH
LCI 2 20 0.06NH
LEI 3 30 0.26NH
CCB 10 20 46FF
CCE 20 30 232FF
CBE 10 30 68FF
LBO 10 100 0.47NH
LCO 20 200 0.36NH
LEO 30 300 0.12NH
.ENDS
*INCLUDE S_RFBJT.LIB
**********
*SRC=BFP181Ws;BFP181Ws;BJTs NPN;RF;Siemens
*SYM=RFNBJT
.SUBCKT BFP181Ws 200 100 300
*SOT343-1
Q1 2 1 3 BFP181Wx
LBI 1 10 0.43NH
LCI 2 20 0.06NH
LEI 3 30 0.26NH
CCB 10 20 46FF
CCE 20 30 232FF
CBE 10 30 68FF
LBO 10 100 0.47NH
LCO 20 200 0.36NH
LEO 30 300 0.12NH
.ENDS
*INCLUDE S_RFBJT.LIB
**********
*SRC=BFP182Ws;BFP182Ws;BJTs NPN;RF;Siemens
*SYM=RFNBJT
.SUBCKT BFP182Ws 200 100 300
*SOT343-1
Q1 2 1 3 BFP182Wx
LBI 1 10 0.43NH
LCI 2 20 0.06NH
LEI 3 30 0.26NH
CCB 10 20 46FF
CCE 20 30 232FF
CBE 10 30 68FF
LBO 10 100 0.47NH
LCO 20 200 0.36NH
LEO 30 300 0.12NH
.ENDS
*INCLUDE S_RFBJT.LIB
**********
*SRC=BFP183Ws;BFP183Ws;BJTs NPN;RF;Siemens
*SYM=RFNBJT
.SUBCKT BFP183Ws 200 100 300
*SOT343-1
Q1 2 1 3 BFP183Wx
LBI 1 10 0.43NH
LCI 2 20 0.06NH
LEI 3 30 0.26NH
CCB 10 20 46FF
CCE 20 30 232FF
CBE 10 30 68FF
LBO 10 100 0.47NH
LCO 20 200 0.36NH
LEO 30 300 0.12NH
.ENDS
*INCLUDE S_RFBJT.LIB
**********
*SRC=BFP193Ws;BFP193Ws;BJTs NPN;RF;Siemens
*SYM=RFNBJT
.SUBCKT BFP193Ws 200 100 300
*SOT343-1
Q1 2 1 3 BFP193Wx
LBI 1 10 0.43NH
LCI 2 20 0.06NH
LEI 3 30 0.26NH
CCB 10 20 46FF
CCE 20 30 232FF
CBE 10 30 68FF
LBO 10 100 0.47NH
LCO 20 200 0.36NH
LEO 30 300 0.12NH
.ENDS
*INCLUDE S_RFBJT.LIB
**********
*SRC=BFP196Ws;BFP196Ws;BJTs NPN;RF;Siemens
*SYM=RFNBJT
.SUBCKT BFP196Ws 200 100 300
*SOT343-1
Q1 2 1 3 BFP196Wx
LBI 1 10 0.43NH
LCI 2 20 0.06NH
LEI 3 30 0.26NH
CCB 10 20 46FF
CCE 20 30 232FF
CBE 10 30 68FF
LBO 10 100 0.47NH
LCO 20 200 0.36NH
LEO 30 300 0.12NH
.ENDS
*INCLUDE S_RFBJT.LIB
**********
*SRC=BFP280Ws;BFP280Ws;BJTs NPN;RF;Siemens
*SYM=RFNBJT
.SUBCKT BFP280Ws 200 100 300
*SOT343-1
Q1 2 1 3 BFP280Wx
LBI 1 10 0.43NH
LCI 2 20 0.06NH
LEI 3 30 0.26NH
CCB 10 20 46FF
CCE 20 30 232FF
CBE 10 30 68FF
LBO 10 100 0.47NH
LCO 20 200 0.36NH
LEO 30 300 0.12NH
.ENDS
*INCLUDE S_RFBJT.LIB
**********
*SRC=BFP136Ws;BFP136Ws;BJTs NPN;RF;Siemens
*SYM=RFNBJT
.SUBCKT BFP136Ws 200 100 300
*SOT343-2
Q1 2 1 3 BFP136Wx
LBI 1 10 0.5NH
LCI 2 20 0.05NH
LEI 3 30 0.18NH
CCB 10 20 48FF
CCE 20 30 244FF
CBE 10 30 78FF
LBO 10 100 0.51NH
LCO 20 200 0.35NH
LEO 30 300 0.14NH
.ENDS
*INCLUDE S_RFBJT.LIB
**********
*SRC=BFP405s;BFP405s;BJTs NPN;RF;Siemens
*SYM=RFNBJT
.SUBCKT BFP405s 200 100 300
*SOT343-3
Q1 2 1 3 BFP405x
LBI 1 10 0.47NH
LCI 2 20 0.56NH
LEI 3 30 0.23NH
CCB 10 20 6.9FF
CCE 20 30 134FF
CBE 10 30 136FF
LBO 10 100 0.53NH
LCO 20 200 0.58NH
LEO 30 300 0.05NH
DEC 3 2 DIODE
.MODEL DIODE D
.ENDS
*INCLUDE S_RFBJT.LIB
**********
*SRC=BFP420s;BFP420s;BJTs NPN;RF;Siemens
*SYM=RFNBJT
.SUBCKT BFP420s 200 100 300
*SOT343-3
Q1 2 1 3 BFP420x
LBI 1 10 0.47NH
LCI 2 20 0.56NH
LEI 3 30 0.23NH
CCB 10 20 6.9FF
CCE 20 30 134FF
CBE 10 30 136FF
LBO 10 100 0.53NH
LCO 20 200 0.58NH
LEO 30 300 0.05NH
DEC 3 2 DIODE
.MODEL DIODE D
.ENDS
*INCLUDE S_RFBJT.LIB
**********
*SRC=BFP450s;BFP450s;BJTs NPN;RF;Siemens
*SYM=RFNBJT
.SUBCKT BFP450s 200 100 300
*SOT343-4
Q1 2 1 3 BFP450x
LBI 1 10 0.31NH
LCI 2 20 0.29NH
LEI 3 30 0.20NH
CCB 10 20 3.2FF
CCE 20 30 213FF
CBE 10 30 208FF
LBO 10 100 0.63NH
LCO 20 200 0.68NH
LEO 30 300 0.05NH
DEC 3 2 DIODE
.MODEL DIODE D
.ENDS
*INCLUDE S_RFBJT.LIB
**********
*SRC=BFP490s;BFP490s;BJTs NPN;RF;Siemens
*SYM=RFNBJT
.SUBCKT BFP490s 200 100 300
*SOT343-4 - Guessed at package because the 490 was left out of attach.txt?
Q1 2 1 3 BFP490x
LBI 1 10 0.31NH
LCI 2 20 0.29NH
LEI 3 30 0.20NH
CCB 10 20 3.2FF
CCE 20 30 213FF
CBE 10 30 208FF
LBO 10 100 0.63NH
LCO 20 200 0.68NH
LEO 30 300 0.05NH
DEC 3 2 DIODE
.MODEL DIODE D
.ENDS
*INCLUDE S_RFBJT.LIB
**********
*SRC=BFS17Ss;BFS17Ss;BJTs NPN;RF;Siemens
*SYM=RFNBJT2
.SUBCKT BFS17Ss 200 100 300   500 400 600
*Connections C1  B1  E1    C2  B2  E2
*SOT363S
Q1 2 1 3 BFS17Sx
LBI 1 10 0.42NH
LEI 3 30 0.5NH
LCI 2 20 0.09NH
CCB 10 20 53FF
CCE 20 30 119FF
CBE 10 30 84FF
LBO 10 100 0.28NH
LCO 20 200 0.57NH
LEO 30 300 0.36NH
.MODEL DIODE D
.ENDS
*INCLUDE S_RFBJT.LIB
**********
*SRC=BFS480s;BFS480s;BJTs NPN;RF;Siemens
*SYM=RFNBJT2
.SUBCKT BFS480s 200 100 300   500 400 600
*Connections C1  B1  E1    C2  B2  E2
*SOT363S
Q1 2 1 3 BFS480x
LBI 1 10 0.42NH
LEI 3 30 0.5NH
LCI 2 20 0.09NH
CCB 10 20 53FF
CCE 20 30 119FF
CBE 10 30 84FF
LBO 10 100 0.28NH
LCO 20 200 0.57NH
LEO 30 300 0.36NH
.MODEL DIODE D
.ENDS
*INCLUDE S_RFBJT.LIB
**********
*SRC=BFS481s;BFS481s;BJTs NPN;RF;Siemens
*SYM=RFNBJT2
.SUBCKT BFS481s 200 100 300   500 400 600
*Connections C1  B1  E1    C2  B2  E2
*SOT363S
Q1 2 1 3 BFS481x
LBI 1 10 0.42NH
LEI 3 30 0.5NH
LCI 2 20 0.09NH
CCB 10 20 53FF
CCE 20 30 119FF
CBE 10 30 84FF
LBO 10 100 0.28NH
LCO 20 200 0.57NH
LEO 30 300 0.36NH
.MODEL DIODE D
.ENDS
*INCLUDE S_RFBJT.LIB
**********
*SRC=BFS482s;BFS482s;BJTs NPN;RF;Siemens
*SYM=RFNBJT2
.SUBCKT BFS482s 200 100 300   500 400 600
*Connections C1  B1  E1    C2  B2  E2
*SOT363S
Q1 2 1 3 BFS482x
LBI 1 10 0.42NH
LEI 3 30 0.5NH
LCI 2 20 0.09NH
CCB 10 20 53FF
CCE 20 30 119FF
CBE 10 30 84FF
LBO 10 100 0.28NH
LCO 20 200 0.57NH
LEO 30 300 0.36NH
.MODEL DIODE D
.ENDS
*INCLUDE S_RFBJT.LIB
**********
*SRC=BFS483s;BFS483s;BJTs NPN;RF;Siemens
*SYM=RFNBJT2
.SUBCKT BFS483s 200 100 300   500 400 600
*Connections C1  B1  E1    C2  B2  E2
*SOT363S
Q1 2 1 3 BFS483x
LBI 1 10 0.42NH
LEI 3 30 0.5NH
LCI 2 20 0.09NH
CCB 10 20 53FF
CCE 20 30 119FF
CBE 10 30 84FF
LBO 10 100 0.28NH
LCO 20 200 0.57NH
LEO 30 300 0.36NH
.MODEL DIODE D
.ENDS
*INCLUDE S_RFBJT.LIB
**********
.MODEL BFS17Px NPN(
+ IS = 4.7055e-15     BF = 101.3        NF = 0.81505
+ VAF = 45            IKF = 0.054272    ISE = 1.536e-14
+ NE = 1.3727         BR = 20.436       NR = 1.4775
+ VAR = 4.6607        IKR = 0.015746    ISC = 1.2944e-15
+ NC = 0.86254        RB = 11.511       IRB = 4.2443e-05
+ RBM = 7.5995        RE = 0.95265      RC = 10
+ CJE = 2.1553e-14    VJE = 0.81319     MJE = 0.52671
+ TF = 3.7049e-11     XTF = 0.24396     VTF = 0.29226
+ ITF = 0.0031948     PTF = 0           CJC = 8.1666e-13
+ VJC = 0.79678       MJC = 0.3138      XCJC = 0.24494
+ TR = 1.2601e-09     CJS= 0            VJS = 0.75
+ MJS = 0             XTB = 0           EG = 1.11
+ XTI = 3             FC = 0.57696)
***************************************************************
.MODEL BFS17Sx NPN(
+ IS = 4.7055e-15     BF = 101.3        NF = 0.81505
+ VAF = 45            IKF = 0.054272    ISE = 1.536e-14
+ NE = 1.3727         BR = 20.436       NR = 1.4775
+ VAR = 4.6607        IKR = 0.015746    ISC = 1.2944e-15
+ NC = 0.86254        RB = 11.511       IRB = 4.2443e-05
+ RBM = 7.5995        RE = 0.95265      RC = 10
+ CJE = 2.1553e-14    VJE = 0.81319     MJE = 0.52671
+ TF = 3.7049e-11     XTF = 0.24396     VTF = 0.29226
+ ITF = 0.0031948     PTF = 0           CJC = 8.1666e-13
+ VJC = 0.79678       MJC = 0.3138      XCJC = 0.24494
+ TR = 1.2601e-09     CJS= 0            VJS = 0.75
+ MJS = 0             XTB = 0           EG = 1.11
+ XTI = 3             FC = 0.57696)
***************************************************************
.MODEL BFS17Wx NPN(
+ IS = 4.7055e-15     BF = 101.3        NF = 0.81505
+ VAF = 45            IKF = 0.054272    ISE = 1.536e-14
+ NE = 1.3727         BR = 20.436       NR = 1.4775
+ VAR = 4.6607        IKR = 0.015746    ISC = 1.2944e-15
+ NC = 0.86254        RB = 11.511       IRB = 4.2443e-05
+ RBM = 7.5995        RE = 0.95265      RC = 10
+ CJE = 2.1553e-14    VJE = 0.81319     MJE = 0.52671
+ TF = 3.7049e-11     XTF = 0.24396     VTF = 0.29226
+ ITF = 0.0031948     PTF = 0           CJC = 8.1666e-13
+ VJC = 0.79678       MJC = 0.3138      XCJC = 0.24494
+ TR = 1.2601e-09     CJS= 0            VJS = 0.75
+ MJS = 0             XTB = 0           EG = 1.11
+ XTI = 3             FC = 0.57696)
***************************************************************
.MODEL BFG135Ax NPN(
+ IS = 9.6952e-15     BF = 86.665       NF = 0.46449
+ VAF = 33.548        IKF = 1.9049      ISE = 3.7545e-15
+ NE = 0.74837        BR = 61.012       NR = 1.1471
+ VAR = 45.693        IKR = 0.019155    ISC = 4.5491e-18
+ NC = 1.2809         RB = 0            IRB = 0.00020816
+ RBM = 1.0193        RE = 1.4768       RC = 0.075508
+ CJE = 3.2968e-14    VJE = 0.87721     MJE = 0.51738
+ TF = 4.2719e-11     XTF = 0.26853     VTF = 0.11783
+ ITF = 0.0047293     PTF = 0           CJC = 2.9998e-12
+ VJC = 1.0086        MJC = 0.39102     XCJC = 0.020778
+ TR = 1.3578e-10     CJS= 0            VJS = 0.75
+ MJS = 0             XTB = 0           EG = 1.11
+ XTI = 3             FC = 0.56371)
***************************************************************
.SUBCKT BFG235x 1 2 3
*               C B E            TWO CHIPS IN PARALLEL
Q1  1 2 3  T236
Q2  1 2 3  T236
.MODEL T236x NPN(
+ IS = 9.6952e-15     BF = 86.665       NF = 0.46449
+ VAF = 33.548        IKF = 1.9049      ISE = 3.7545e-15
+ NE = 0.74837        BR = 61.012       NR = 1.1471
+ VAR = 45.693        IKR = 0.019155    ISC = 4.5491e-18
+ NC = 1.2809         RB = 0            IRB = 0.00020816
+ RBM = 1.0193        RE = 1.4768       RC = 0.075508
+ CJE = 3.2968e-14    VJE = 0.87721     MJE = 0.51738
+ TF = 4.2719e-11     XTF = 0.26853     VTF = 0.11783
+ ITF = 0.0047293     PTF = 0           CJC = 2.9998e-12
+ VJC = 1.0086        MJC = 0.39102     XCJC = 0.020778
+ TR = 1.3578e-10     CJS= 0            VJS = 0.75
+ MJS = 0             XTB = 0           EG = 1.11
+ XTI = 3             FC = 0.56371)
.ENDS
***************************************************************
.MODEL BFP136Wx NPN(
+ IS = 1.5813e-15     BF = 113.32       NF = 1.0653
+ VAF = 12.331        IKF = 1.4907      ISE = 4.637e-14
+ NE = 1.4254         BR = 86.718       NR = 1.8047
+ VAR = 31.901        IKR = 0.033605    ISC = 8.0864e-18
+ NC = 1.8821         RB = 0            IRB = 0.00083992
+ RBM = 1.0078        RE = 0.22081      RC = 0.01636
+ CJE = 3.3904e-14    VJE = 0.71518     MJE = 0.36824
+ TF = 2.0691e-11     XTF = 0.31338     VTF = 0.10174
+ ITF = 0.0045579     PTF = 0           CJC = 2.9774e-12
+ VJC = 1.1381        MJC = 0.31461     XCJC = 0.02899
+ TR = 1.0033e-09     CJS= 0            VJS = 0.75
+ MJS = 0             XTB = 0           EG = 1.11
+ XTI = 3             FC = 0.99886)
***************************************************************
.MODEL BFQ81x NPN(
+ IS = 1.703e-14      BF = 110          NF = 0.80846
+ VAF = 35            IKF = 0.22241     ISE = 5.8728e-15
+ NE = 1.0668         BR = 25.974       NR = 0.36321
+ VAR = 2.3785        IKR = 0.011566    ISC = 1.6977e-13
+ NC = 1.2237         RB = 5.7058       IRB = 0.00011894
+ RBM = 1.5489        RE = 1.1731       RC = 0.3715
+ CJE = 3.3977e-14    VJE = 0.4318      MJE = 1.7707
+ TF = 2.1842e-11     XTF = 0.26781     VTF = 0.48042
+ ITF = 0.014701      PTF = 0           CJC = 6.9381e-13
+ VJC = 0.26339       MJC = 0.24448     XCJC = 0.1254
+ TR = 1.2554e-09     CJS= 0            VJS = 0.75
+ MJS = 0             XTB = 0           EG = 1.11
+ XTI = 3             FC = 0.74346)
***************************************************************
.MODEL BFP81x NPN(
+ IS = 1.703e-14      BF = 110          NF = 0.80846
+ VAF = 35            IKF = 0.22241     ISE = 5.8728e-15
+ NE = 1.0668         BR = 25.974       NR = 0.36321
+ VAR = 2.3785        IKR = 0.011566    ISC = 1.6977e-13
+ NC = 1.2237         RB = 5.7058       IRB = 0.00011894
+ RBM = 1.5489        RE = 1.1731       RC = 0.3715
+ CJE = 3.3977e-14    VJE = 0.4318      MJE = 1.7707
+ TF = 2.1842e-11     XTF = 0.26781     VTF = 0.48042
+ ITF = 0.014701      PTF = 0           CJC = 6.9381e-13
+ VJC = 0.26339       MJC = 0.24448     XCJC = 0.1254
+ TR = 1.2554e-09     CJS= 0            VJS = 0.75
+ MJS = 0             XTB = 0           EG = 1.11
+ XTI = 3             FC = 0.74346)
***************************************************************
.MODEL BFR93AWx NPN(
+ IS = 8.6752e-15     BF = 137.63       NF = 0.93633
+ VAF = 20.011        IKF = 0.33395     ISE = 2.6193e-12
+ NE = 1.5466         BR = 59           NR = 0.88761
+ VAR = 26.834        IKR = 0.015129    ISC = 7.0823e-16
+ NC = 1.95           RB = 7.2326       IRB = 4.3806e-05
+ RBM = 3.4649        RE = 1.0075       RC = 0.13193
+ CJE = 3.1538e-15    VJE = 0.70393     MJE = 0.5071
+ TF = 3.3388e-11     XTF = 0.28319     VTF = 0.17765
+ ITF = 0.0025184     PTF = 0           CJC = 1.0395e-12
+ VJC = 0.72744       MJC = 0.34565     XCJC = 0.21422
+ TR = 1.1061e-09     CJS= 0            VJS = 0.75
+ MJS = 0             XTB = 0           EG = 1.11
+ XTI = 3             FC = 0.75935)
**************************************************************
.MODEL BFR93Ax NPN(
+ IS = 8.6752e-15     BF = 137.63       NF = 0.93633
+ VAF = 20.011        IKF = 0.33395     ISE = 2.6193e-12
+ NE = 1.5466         BR = 59           NR = 0.88761
+ VAR = 26.834        IKR = 0.015129    ISC = 7.0823e-16
+ NC = 1.95           RB = 7.2326       IRB = 4.3806e-05
+ RBM = 3.4649        RE = 1.0075       RC = 0.13193
+ CJE = 3.1538e-15    VJE = 0.70393     MJE = 0.5071
+ TF = 3.3388e-11     XTF = 0.28319     VTF = 0.17765
+ ITF = 0.0025184     PTF = 0           CJC = 1.0395e-12
+ VJC = 0.72744       MJC = 0.34565     XCJC = 0.21422
+ TR = 1.1061e-09     CJS= 0            VJS = 0.75
+ MJS = 0             XTB = 0           EG = 1.11
+ XTI = 3             FC = 0.75935)
**************************************************************
.MODEL BFP93Ax NPN(
+ IS = 8.6752e-15     BF = 137.63       NF = 0.93633
+ VAF = 20.011        IKF = 0.33395     ISE = 2.6193e-12
+ NE = 1.5466         BR = 59           NR = 0.88761
+ VAR = 26.834        IKR = 0.015129    ISC = 7.0823e-16
+ NC = 1.95           RB = 7.2326       IRB = 4.3806e-05
+ RBM = 3.4649        RE = 1.0075       RC = 0.13193
+ CJE = 3.1538e-15    VJE = 0.70393     MJE = 0.5071
+ TF = 3.3388e-11     XTF = 0.28319     VTF = 0.17765
+ ITF = 0.0025184     PTF = 0           CJC = 1.0395e-12
+ VJC = 0.72744       MJC = 0.34565     XCJC = 0.21422
+ TR = 1.1061e-09     CJS= 0            VJS = 0.75
+ MJS = 0             XTB = 0           EG = 1.11
+ XTI = 3             FC = 0.75935)
**************************************************************
.MODEL BFR106x NPN(
+ IS = 1.8998e-15     BF = 132.75       NF = 0.89608
+ VAF = 15            IKF = 0.44125     ISE = 7.1424e-14
+ NE = 1.3235         BR = 11.407       NR = 0.91008
+ VAR = 4.1613        IKR = 0.010016    ISC = 2.0992e-15
+ NC = 1.4602         RB = 1.2652       IRB = 2.8135e-05
+ RBM = 1.0893        RE = 1.1351       RC = 0.27485
+ CJE = 5.0933e-15    VJE = 0.85909     MJE = 0.69062
+ TF = 3.5786e-11     XTF = 0.44444     VTF = 0.10681
+ ITF = 0.062059      PTF = 0           CJC = 2.3278e-12
+ VJC = 0.81533       MJC = 0.46849     XCJC = 0.14496
+ TR = 1.2466e-09     CJS= 0            VJS = 0.75
+ MJS = 0             XTB = 0           EG = 1.11
+ XTI = 3             FC = 0.92887)
***************************************************************
.MODEL BFG19Sx NPN(
+ IS = 1.8998e-15     BF = 132.75       NF = 0.89608
+ VAF = 15            IKF = 0.44125     ISE = 7.1424e-14
+ NE = 1.3235         BR = 11.407       NR = 0.91008
+ VAR = 4.1613        IKR = 0.010016    ISC = 2.0992e-15
+ NC = 1.4602         RB = 1.2652       IRB = 2.8135e-05
+ RBM = 1.0893        RE = 1.1351       RC = 0.27485
+ CJE = 5.0933e-15    VJE = 0.85909     MJE = 0.69062
+ TF = 3.5786e-11     XTF = 0.44444     VTF = 0.10681
+ ITF = 0.062059      PTF = 0           CJC = 2.3278e-12
+ VJC = 0.81533       MJC = 0.46849     XCJC = 0.14496
+ TR = 1.2466e-09     CJS= 0            VJS = 0.75
+ MJS = 0             XTB = 0           EG = 1.11
+ XTI = 3             FC = 0.92887)
***************************************************************
.MODEL BFR180Wx NPN(