**********
* Copyright Intusoft 1992-1997
* All Rights Reserved
**********
**********
*SRC=2N2322;SN2322;SCRs;General;25V 1.6A
*SYM=SCR
*HELP issyntax.hlp "SCRs"
.SUBCKT SN2322   1 2 3
*    TERMINALS:  A G K
*  Unitrode 2N2322 25 Volt  1.6 Amp  SCR  09-03-1991
QP  6 4 1  POUT; OFF
QN  4 6 3  NOUT; OFF
RF  6 4    500MEG
RR  1 4    333MEG
RG  6 3    2.75K
RGS 2 6    3.62
DF  6 4    ZF
DR  1 4    ZR
DG  6 3    ZG
.MODEL ZF   D (IS=.64F IBV=10N BV=25 RS=75MEG)
.MODEL ZR   D (IS=.64F IBV=10N BV=33.3)
.MODEL ZG   D (IS=.64F IBV=10N BV=5)
.MODEL POUT PNP (IS=640F BF=1 CJE=2.41N TF=179N TR=34U)
.MODEL NOUT NPN (IS=640F BF=100 RE=.181 RC=.181
+ CJE=2.41N CJC=482P TF=179N TR=34U)
.ENDS 
**********
*SRC=2N3027;SN3027;SCRs;General;30V .5A
*SYM=SCR
*HELP issyntax.hlp "SCRs"
.SUBCKT SN3027   1 2 3
*    TERMINALS:  A G K
* Unitrode 2N3027 30 Volt  .5 Amp  SCR  08-26-1993
QP  6 4 1  POUT; OFF
QN  4 6 5  NOUT; OFF
RF  6 4    6003MEG
RR  1 4    4000MEG
RGK 6 5    6.07K
RG  2 6    37.9
RK  3 5    .1
DF  6 4    ZF
DR  1 4    ZR
DGK 6 5    ZGK
.MODEL ZF   D (IS=.2F IBV=1N BV=30 RS=900MEG)
.MODEL ZR   D (IS=.2F IBV=1N BV=40)
.MODEL ZGK  D (IS=.2F IBV=1N BV=5)
.MODEL POUT PNP (IS=200F BF=1 CJE=293P)
.MODEL NOUT NPN (IS=200F BF=100 RC=.4 CJE=293P 
+ CJC=58.6P TF=44.7N TR=6.37U)
.ENDS 
**********
*SRC=2N5724;SN5724;SCRs;General;60V 1.6A
*SYM=SCR
*HELP issyntax.hlp "SCRs"
.SUBCKT SN5724   1 2 3
*    TERMINALS:  A G K
* Unitrode 2N5724 60 Volt  1.6 Amp  SCR  08-26-1993
QP  6 4 1  POUT; OFF
QN  4 6 5  NOUT; OFF
RF  6 4    1.20E+10
RR  1 4    8001MEG
RGK 6 5    15.937k
RG  2 6    37.9
RK  3 5    93.7M
DF  6 4    ZF
DR  1 4    ZR
DGK 6 5    ZGK
.MODEL ZF   D (IS=.64F IBV=1N BV=60 RS=1800MEG)
.MODEL ZR   D (IS=.64F IBV=1N BV=80)
.MODEL ZGK  D (IS=.64F IBV=1N BV=6)
.MODEL POUT PNP (IS=640F BF=1 CJE=268P)
.MODEL NOUT NPN (IS=640F BF=100 RC=.375
+ CJE=268P CJC=53.6P TF=80.1N TR=25.5U)
.ENDS 
**********
*SRC=2N2574;SN2574;SCRs;General;50V 25A
*SYM=SCR
*HELP issyntax.hlp "SCRs"
.SUBCKT SN2574   1 2 3
*    TERMINALS:  A G K
* Motorola 2N2574 50 Volt  25 Amp  SCR  08-25-1993
QP  6 4 1  POUT; OFF
QN  4 6 5  NOUT; OFF
RF  6 4    10MEG
RR  1 4    6.66MEG
RGK 6 5    36
RG  2 6    4.62
RK  3 5    2.6M
DF  6 4    ZF
DR  1 4    ZR
DGK 6 5    ZGK
.MODEL ZF   D (IS=10F IBV=1U BV=50 RS=1.5MEG)
.MODEL ZR   D (IS=10F IBV=1U BV=66.6)
.MODEL ZGK  D (IS=10F IBV=1U BV=5)
.MODEL POUT PNP (IS=10P BF=1 CJE=2.09N)
.MODEL NOUT NPN (IS=10P BF=100 RC=10.4M
+ CJE=2.09N CJC=418P TF=316N TR=45.1U)
.ENDS 
**********
*SRC=BTW38-600R;BTW38;SCRs;General;600V 16A
*SYM=SCR
*HELP issyntax.hlp "SCRs"
.SUBCKT BTW38    1 2 3
*    TERMINALS:  A G K
*  Philips 600 Volt  16 Amp  SCR  09-04-1991
QP  6 4 1  POUT; OFF
QN  4 6 3  NOUT; OFF
RF  6 4    400K
RR  1 4    266K
RG  6 3    24
RGS 2 6    .2
DF  6 4    ZF
DR  1 4    ZR
DG  6 3    ZG
.MODEL ZF   D (IS=6.4F IBV=300U BV=600 RS=60K)
.MODEL ZR   D (IS=6.4F IBV=300U BV=800)
.MODEL ZG   D (IS=6.4F IBV=300U BV=5)
.MODEL POUT PNP (IS=6.4P BF=1 CJE=19.4N TF=228N TR=59.5U)
.MODEL NOUT NPN (IS=6.4P BF=100 RE=10M RC=10M
+ CJE=19.4N CJC=3.89N TF=228N TR=59.5U)
.ENDS 
**********
*SRC=C180A;C180;SCRs;General;100V 150A
*SYM=SCR
*HELP issyntax.hlp "SCRs"
.SUBCKT C180    1 2 3
*    TERMINALS:  A G K
*  Powerex 100 Volt  235 Amp  SCR  08-26-1993
QP  6 4 1  POUT; OFF
QN  4 6 5  NOUT; OFF
RF  6 4    10K
RR  1 4    6.66K
RGK 6 5    4.5
RG  2 6    .699
RK  3 5    425U
DF  6 4    ZF
DR  1 4    ZR
DGK 6 5    ZGK
.MODEL ZF   D (IS=94F IBV=2M BV=100 RS=1.5K)
.MODEL ZR   D (IS=94F IBV=2M BV=133)
.MODEL ZGK  D (IS=94F IBV=2M BV=5)
.MODEL POUT PNP (IS=94P BF=1 CJE=19.6N)
.MODEL NOUT NPN (IS=94P BF=100 RC=1.7M
+ CJE=19.6N CJC=3.93N TF=179N TR=170U)
.ENDS 
**********
*SRC=2N3884;SN3884;SCRs;General;50V 50A
*SYM=SCR
*HELP issyntax.hlp "SCRs"
.SUBCKT SN3884   1 2 3
*    TERMINALS:  A G K
*  Powerex 50 Volt  275 Amp  SCR  08-26-1993
QP  6 4 1  POUT; OFF
QN  4 6 5  NOUT; OFF
RF  6 4    4K
RR  1 4    2.66K
RGK 6 5    5
RG  2 6    2.25
RK  3 5    315U
DF  6 4    ZF
DR  1 4    ZR
DGK 6 5    ZGK
.MODEL ZF   D (IS=110F IBV=2.5M BV=50 RS=600)
.MODEL ZR   D (IS=110F IBV=2.5M BV=66.6)
.MODEL ZGK  D (IS=110F IBV=2.5M BV=5)
.MODEL POUT PNP (IS=110P BF=1 CJE=1.67N)
.MODEL NOUT NPN (IS=110P BF=100 RC=1.26M
+ CJE=1.67N CJC=335P TF=1.05U TR=170U)
.ENDS 
**********
*SRC=T76004;T76004;SCRs;General;400V 300A
*SYM=SCR
*HELP issyntax.hlp "SCRs"
.SUBCKT T76004   1 2 3
*    TERMINALS:  A G K
* Powerex 400 Volt  470 Amp  SCR  08-26-1993
QP  6 4 1  POUT; OFF
QN  4 6 5  NOUT; OFF
RF  6 4    26.6K
RR  1 4    17.7K
RGK 6 5    3.5
RG  2 6    2
RK  3 5    369U
DF  6 4    ZF
DR  1 4    ZR
DGK 6 5    ZGK
.MODEL ZF   D (IS=188F IBV=3M BV=400 RS=4K)
.MODEL ZR   D (IS=188F IBV=3M BV=533)
.MODEL ZGK  D (IS=188F IBV=3M BV=5)
.MODEL POUT PNP (IS=188P BF=1 CJE=20.1N)
.MODEL NOUT NPN (IS=188P BF=100 RC=1.47M
+ CJE=20.1N CJC=4.02N TF=1.25U TR=255U)
.ENDS 
**********
*SRC=S4060A;S4060A;SCRs;General;100V 10A
*SYM=SCR
*HELP issyntax.hlp "SCRs"
.SUBCKT S4060A   1 2 3
*    TERMINALS:  A G K
* RCA S4060A 100 Volt  10 Amp  SCR  08-26-1993
QP  6 4 1  POUT; OFF
QN  4 6 5  NOUT; OFF
RF  6 4    4MEG
RR  1 4    2.66MEG
RGK 6 5    950
RG  2 6    46.2
RK  3 5    16.5M
DF  6 4    ZF
DR  1 4    ZR
DGK 6 5    ZGK
.MODEL ZF   D (IS=4F IBV=5U BV=100 RS=600K)
.MODEL ZR   D (IS=4F IBV=5U BV=133)
.MODEL ZGK  D (IS=4F IBV=5U BV=6)
.MODEL POUT PNP (IS=4P BF=1 CJE=25.1N)
.MODEL NOUT NPN (IS=4P BF=100 RC=26M
+ CJE=25.1N CJC=5.02N TF=200N TR=85U)
.ENDS 
**********
*SRC=S3701M;S3701M;SCRs;General;600V 5A
*SYM=SCR
*HELP issyntax.hlp "SCRs"
.SUBCKT S3701M   1 2 3
*    TERMINALS:  A G K
*  RCA S3701M 600 Volt  5 Amp  SCR  09-04-1991
QP  6 4 1  POUT; OFF
QN  4 6 3  NOUT; OFF
RF  6 4    3MEG
RR  1 4    2MEG
RG  6 3    97.5
RGS 2 6    .233
DF  6 4    ZF
DR  1 4    ZR
DG  6 3    ZG
.MODEL ZF   D (IS=2F IBV=40U BV=600 RS=450K)
.MODEL ZR   D (IS=2F IBV=40U BV=800)
.MODEL ZG   D (IS=2F IBV=40U BV=5)
.MODEL POUT PNP (IS=2P BF=1 CJE=4.54N TF=125N TR=6.8U)
.MODEL NOUT NPN (IS=2P BF=100 RE=11.6M RC=11.6M
+ CJE=4.54N CJC=908P TF=125N TR=6.8U)
.ENDS 
**********
*SRC=2N6397;SN6397;SCRs;General;450V 12A
*SYM=SCR
*HELP issyntax.hlp "SCRs"
.SUBCKT SN6397 1     2    3
* RCA 2N6397 SCR...ANODE GATE CATHODE
Q1 2 4 1 QPSCR AREA=.67; OFF
Q2 4 2 3 QNSCR AREA=.67
Q3 5 4 1 QPSCR AREA=.33; OFF
Q4 4 5 3 QNSCR AREA=.33
RBN 2 5 40
.MODEL QNSCR NPN(TF=400NS TR=1.6US CJC=75PF CJE=175PF XTB=2.5
+ IS=1E-14 ISE=3E-9 NE=2 BF=100 BR=25 ISC=3E-9 NC=2)
.MODEL QPSCR PNP(TF=90NS TR=180NS CJC=75PF CJE=80PF XTB=2.5 
+ IS=1E-14 ISE=3E-9 NE=2 BF=50 BR=25 ISC=3E-9 NC=2 RE=.03)
.ENDS
**********
*SRC=MCR22-2;MCR222;SCRs;General;50V 1.5A
*SYM=SCR
*HELP issyntax.hlp "SCRs"
.SUBCKT MCR222 1     2    3
* MCR22-2 MOTOROLA SCR...ANODE GATE CATHODE
* 1.5 AMPS RMS 50 VOLTS
Q1 2 4 1 QPSCR AREA=.67; OFF
Q2 4 2 3 QNSCR AREA=.67
Q3 5 4 1 QPSCR AREA=.33; OFF
Q4 4 5 3 QNSCR AREA=.33
RBN 2 5 4800
.MODEL QNSCR NPN(TF=1US TR=3.5US CJC=10PF CJE=15PF XTB=2.5
+ IS=1E-15 ISE=3E-10 NE=2 BF=75 BR=25 ISC=3E-10 NC=2 )
.MODEL QPSCR PNP(TF=500NS TR=1US CJC=10PF CJE=16PF XTB=2.5 
+ IS=1E-15 ISE=3E-10 NE=2 BF=75 BR=25 ISC=3E-10 NC=2 RE=.03)
.ENDS
**********
*SRC=2N4870;UN4870;UJTs;35V 300mW;
*SYM=UJT
* 2N4870 PN Unijunction Transistor
*HELP issyntax.hlp "SCRs"
.SUBCKT UN4870  1       2     3
* Connections   Emitter Base1 Base2
* Motorola IP=.3U IV=4.75M VB1(sat)=3.28 Rbb=5.23K Vob1=3.26 n=.57
DE 1 4 EMITTER
VE 4 5 DC 0
HVE 6 0 VE 1K
RVE 0 6 1MEG
GBB 5 7 POLY(2) 5 7 6 0 0 .333M 0 0 7.5M
CBB 5 7 35P
RB1 7 2 41.0 RMOD
RB2 3 5 2.19K RMOD
.MODEL RMOD R TC1=.015
.MODEL EMITTER D (IS=21.3P N=1.7)
.ENDS
**********
*SRC=2N4871;UN4871;UJTs;35V 300mW;
*SYM=UJT
* 2N4871 PN Unijunction Transistor
*HELP issyntax.hlp "SCRs"
.SUBCKT UN4871  1       2     3
* Connections   Emitter Base1 Base2
* Motorola IP=.3U IV=5.5M VB1(sat)=1.87 Rbb=7.6K Vob1=5.05 n=.522
DE 1 4 EMITTER
VE 4 5 DC 0
HVE 6 0 VE 1K
RVE 0 6 1MEG
GBB 5 7 POLY(2) 5 7 6 0 0 .25M 0 0 7.5M
CBB 5 7 35P
RB1 7 2 15.0 RMOD
RB2 3 5 3.59K RMOD
.MODEL RMOD R TC1=.015
.MODEL EMITTER D (IS=21.3P N=1.7)
.ENDS
**********
*SRC=2N4851;UN4851;UJTs;35V 300mW;
*SYM=UJT
* 2N4851 PN Unijunction Transistor
*HELP issyntax.hlp "SCRs"
.SUBCKT UN4851 1 2 3
* Connections   Emitter Base1 Base2
DE 1 4 EMITTER
VE 4 5 DC 0
HVE 6 0 VE 1K
RVE 0 6 1MEG
GBB 5 7 POLY(2) 5 7 6 0 0 .25M 0 0 7.5M
CBB 5 7 35P
RB1 7 2 381.5 RMOD
RB2 3 5 2.518K RMOD 
.MODEL RMOD R TC1=.01
.MODEL EMITTER D (IS=6.45P N=1.7 IBV=.01U)
+ CJO=10P TT=144N)
.ENDS
**********
*SRC=2N2646;UN2646;UJTS;35V 300mW;
*SYM=UJT
*HELP issyntax.hlp "SCRs"
.SUBCKT UN2646 1       2     3
*Connections   Emitter Base1 Base2
* Motorola IP=.3U IV=5.25M VB1(sat)=3.21 Rbb=6.1K Vob1=3.6
DE 1 4 EMITTER
VE 4 5 DC 0
HVE 6 0 VE 1K
RVE 0 6 1MEG
GBB 5 7 POLY(2) 5 7 6 0 0 .28M 0 0 5.75M
CBB 5 7 35P
RB1 7 2 38.15 RMOD
RB2 3 5 2.518K RMOD 
.MODEL RMOD R TC1=.01
.MODEL EMITTER D (IS=21.3P N=1.8)
.ENDS
**********
*SRC=2N2647;UN2647;UJTS;35V 300mW;
*SYM=UJT
*HELP issyntax.hlp "SCRs"
.SUBCKT UN2647 1       2     3
*Connections   Emitter Base1 Base2
* Motorola IP=.3U IV=9.75M VB1(sat)=2.8 Rbb=7.4K Vob1=7.5
* n=.76
DE 1 4 EMITTER
VE 4 5 DC 0
HVE 6 0 VE 1K
RVE 0 6 1MEG
GBB 5 7 POLY(2) 5 7 6 0 0 .17M 0 0 3.75M
CBB 5 7 35P
RB1 7 2 18.15 RMOD
RB2 3 5 1.518K RMOD 
.MODEL RMOD R TC1=.01
.MODEL EMITTER D (IS=21.3P N=1.7)
.ENDS
**********
*SRC=2N6027;PN6027;PUTs;40V 300mW;
*SYM=PUT
*HELP issyntax.hlp "SCRs"
.SUBCKT PN6027 4     2    3
*              Anode Gate Cathode
X2 5 2 4 PBJT
X1 2 5 3 NBJT
.ENDS
*HELP issyntax.hlp "SCRs"
.SUBCKT NBJT 1 2 3    
Q1 1 2 3 NBJT   
.MODEL NBJT NPN(CJC=11P TF=16N TR=47.6N ISE=1.85P NE=1.45
+ CJE=35P RC=500M VAF=100 IKF=5M IS=5F RB=10 RE=.5)
.ENDS   
*HELP issyntax.hlp "SCRs"
.SUBCKT PBJT 1 2 3    
Q1 1 2 3 PBJT   
.MODEL PBJT PNP(CJC=11P TF=16N TR=51N ISE=1.9P NE=1.5
+ CJE=35P RC=500M VAF=100 IKF=5M IS=2F RB=10 RE=.5)
.ENDS   
**********
*SRC=2N6028;PN6028;PUTs;40V 300mW;
*SYM=PUT
*HELP issyntax.hlp "SCRs"
.SUBCKT PN6028 4     2    3
*              Anode Gate Cathode
X2 5 2 4 PBJT
X1 2 5 3 NBJT
.ENDS
*HELP issyntax.hlp "SCRs"
.SUBCKT NBJT 1 2 3
Q1 1 2 3 NBJT   
.MODEL NBJT NPN(CJC=11P TF=16N TR=47.6N ISE=4P NE=1.5
+ CJE=35P RC=500M VAF=100 IKF=5M IS=2F RB=10 RE=.5)
.ENDS   
*HELP issyntax.hlp "SCRs"
.SUBCKT PBJT 1 2 3
Q1 1 2 3 PBJT   
.MODEL PBJT PNP(CJC=11P TF=16N TR=51N ISE=1P NE=1.8
+ CJE=35P RC=500M VAF=100 IKF=5M IS=22F RB=10 RE=.5)
.ENDS   
**********
*SRC=GA300;GA300;SCRs;General;60V 100A
*SYM=SCR
*HELP issyntax.hlp "SCRs"
.SUBCKT GA300    1 2 3
*    TERMINALS:  A G K
*  60 Volt  100 Amp  SCR  12-04-1991
QP  6 4 1  POUT; OFF
QN  4 6 5  NOUT; OFF
RF  6 4    1.20E+10
RR  1 4    80K
RGK 6 5    450
RG  2 6    37.5
RK  3 5    50M
DF  6 4    ZF
DR  1 4    ZR
DGK 6 5    ZGK
.MODEL ZF   D (IS=40F IBV=1N BV=60 RS=1800MEG)
.MODEL ZR   D (IS=40F IBV=100U BV=80)
.MODEL ZGK  D (IS=40F IBV=100U BV=5)
.MODEL POUT PNP (IS=40P BF=1 CJE=1.13N TF=6.26N TR=1.36U)
.MODEL NOUT NPN (IS=40P BF=100 RC=.2
+ CJE=1.13N CJC=227P TF=6.26N TR=1.36U)
.ENDS 
**********
*SRC=GA301;GA301;SCRs;General;100V 100A
*SYM=SCR
*HELP issyntax.hlp "SCRs"
.SUBCKT GA301    1 2 3
*    TERMINALS:  A G K
*  100 Volt  100 Amp  SCR  12-04-1991
QP  6 4 1  POUT; OFF
QN  4 6 5  NOUT; OFF
RF  6 4    2.00E+10
RR  1 4    133K
RGK 6 5    450
RG  2 6    37.5
RK  3 5    50M
DF  6 4    ZF
DR  1 4    ZR
DGK 6 5    ZGK
.MODEL ZF   D (IS=40F IBV=1N BV=100 RS=3001MEG)
.MODEL ZR   D (IS=40F IBV=100U BV=133)
.MODEL ZGK  D (IS=40F IBV=100U BV=5)
.MODEL POUT PNP (IS=40P BF=1 CJE=1.13N TF=6.26N TR=1.36U)
.MODEL NOUT NPN (IS=40P BF=100 RC=.2
+ CJE=1.13N CJC=227P TF=6.26N TR=1.36U)
.ENDS 
**********
*SRC=MCR65-6;MCR65_6;SCRs;General;400V 55A
*SYM=SCR
*HELP issyntax.hlp "SCRs"
.SUBCKT MCR65_6  1 2 3
*    TERMINALS:  A G K
* Motorola MCR65-5 400 Volt  55 Amp  SCR  10-21-1991
QP  6 4 1  POUT; OFF
QN  4 6 3  NOUT; OFF
RF  6 4    116K
RR  1 4    77.5K
RG  6 3    31.2
RGS 2 6    34.3M
DF  6 4    ZF
DR  1 4    ZR
DG  6 3    ZG
.MODEL ZF   D (IS=22F IBV=687U BV=400 RS=17.4K)
.MODEL ZR   D (IS=22F IBV=687U BV=533)
.MODEL ZG   D (IS=22F IBV=687U BV=5)
.MODEL POUT PNP (IS=22P BF=1 CJE=38.1N TF=469N TR=66.9U)
.MODEL NOUT NPN (IS=22P BF=100 RE=1.71M RC=1.71M
+ CJE=38.1N CJC=7.63N TF=469N TR=66.9U)
.ENDS
**********
*SRC=TIC106F;TIC106F;SCRs;General;50V 3.2A
*SYM=SCR
*HELP issyntax.hlp "SCRs"
.SUBCKT TIC106F  1 2 3
*    TERMINALS:  A G K
*  50 Volt  3.2 Amp  SCR  12-04-1991
QP  6 4 1  POUT; OFF
QN  4 6 5  NOUT; OFF
RF  6 4    250K
RR  1 4    66.6K
RGK 6 5    2.3K
RG  2 6    11.5
RK  3 5    40M
DF  6 4    ZF
DR  1 4    ZR
DGK 6 5    ZGK
.MODEL ZF   D (IS=1.28F IBV=40U BV=50 RS=37.5K)
.MODEL ZR   D (IS=1.28F IBV=100U BV=66.6)
.MODEL ZGK  D (IS=1.28F IBV=100U BV=5)
.MODEL POUT PNP (IS=1.28P BF=1 CJE=12N TF=313N TR=13U)
.MODEL NOUT NPN (IS=1.28P BF=100 RC=.16
+ CJE=12N CJC=2.41N TF=313N TR=13U)
.ENDS 
**********
*SRC=TIC106A;TIC106A;SCRs;General;100V 3.2A
*SYM=SCR
*HELP issyntax.hlp "SCRs"
.SUBCKT TIC106A  1 2 3
*    TERMINALS:  A G K
*  100 Volt  3.2 Amp  SCR  12-04-1991
QP  6 4 1  POUT; OFF
QN  4 6 5  NOUT; OFF
RF  6 4    500K
RR  1 4    133K
RGK 6 5    1.25K
RG  2 6    11.5
RK  3 5    40M
DF  6 4    ZF
DR  1 4    ZR
DGK 6 5    ZGK
.MODEL ZF   D (IS=1.28F IBV=40U BV=100 RS=75K)
.MODEL ZR   D (IS=1.28F IBV=100U BV=133)
.MODEL ZGK  D (IS=1.28F IBV=100U BV=5)
.MODEL POUT PNP (IS=1.28P BF=1 CJE=12N TF=313N TR=13U)
.MODEL NOUT NPN (IS=1.28P BF=100 RC=.16
+ CJE=12N CJC=2.41N TF=313N TR=13U)
.ENDS 
**********
*SRC=TIC106B;TIC106B;SCRs;General;200V 3.2A
*SYM=SCR
*HELP issyntax.hlp "SCRs"
.SUBCKT TIC106B  1 2 3
*    TERMINALS:  A G K
*  200 Volt  3.2 Amp  SCR  12-04-1991
QP  6 4 1  POUT; OFF
QN  4 6 5  NOUT; OFF
RF  6 4    1000K
RR  1 4    266K
RGK 6 5    2.1K
RG  2 6    11.5
RK  3 5    40M
DF  6 4    ZF
DR  1 4    ZR
DGK 6 5    ZGK
.MODEL ZF   D (IS=1.28F IBV=40U BV=200 RS=150K)
.MODEL ZR   D (IS=1.28F IBV=100U BV=266)
.MODEL ZGK  D (IS=1.28F IBV=100U BV=5)
.MODEL POUT PNP (IS=1.28P BF=1 CJE=12N TF=313N TR=13U)
.MODEL NOUT NPN (IS=1.28P BF=100 RC=.16
+ CJE=12N CJC=2.41N TF=313N TR=13U)
.ENDS 
**********
*SRC=TIC106C;TIC106C;SCRs;General;300V 3.2A
*SYM=SCR
*HELP issyntax.hlp "SCRs"
.SUBCKT TIC106C  1 2 3
*    TERMINALS:  A G K
*  300 Volt  3.2 Amp  SCR  12-04-1991
QP  6 4 1  POUT; OFF
QN  4 6 5  NOUT; OFF
RF  6 4    1.5MEG
RR  1 4    400K
RGK 6 5    2.2K
RG  2 6    11.5
RK  3 5    40M
DF  6 4    ZF
DR  1 4    ZR
DGK 6 5    ZGK
.MODEL ZF   D (IS=1.28F IBV=40U BV=300 RS=225K)
.MODEL ZR   D (IS=1.28F IBV=100U BV=400)
.MODEL ZGK  D (IS=1.28F IBV=100U BV=5)
.MODEL POUT PNP (IS=1.28P BF=1 CJE=12N TF=313N TR=13U)
.MODEL NOUT NPN (IS=1.28P BF=100 RC=.16
+ CJE=12N CJC=2.41N TF=313N TR=13U)
.ENDS 
**********
*SRC=TIC106D;TIC106D;SCRs;General;400V 3.2A
*SYM=SCR
*HELP issyntax.hlp "SCRs"
.SUBCKT TIC106D  1 2 3
*    TERMINALS:  A G K
*  400 Volt  3.2 Amp  SCR  12-04-1991
QP  6 4 1  POUT; OFF
QN  4 6 5  NOUT; OFF
RF  6 4    2MEG
RR  1 4    533K
RGK 6 5    2.3K
RG  2 6    11.5
RK  3 5    40M
DF  6 4    ZF
DR  1 4    ZR
DGK 6 5    ZGK
.MODEL ZF   D (IS=1.28F IBV=40U BV=400 RS=300K)
.MODEL ZR   D (IS=1.28F IBV=100U BV=533)
.MODEL ZGK  D (IS=1.28F IBV=100U BV=5)
.MODEL POUT PNP (IS=1.28P BF=1 CJE=12N TF=313N TR=13U)
.MODEL NOUT NPN (IS=1.28P BF=100 RC=.16
+ CJE=12N CJC=2.41N TF=313N TR=13U)
.ENDS 
**********
*SRC=TIC106E;TIC106E;SCRs;General;500V 3.2A
*SYM=SCR
*HELP issyntax.hlp "SCRs"
.SUBCKT TIC106E  1 2 3
*    TERMINALS:  A G K
*  500 Volt  3.2 Amp  SCR  12-04-1991
QP  6 4 1  POUT; OFF
QN  4 6 5  NOUT; OFF
RF  6 4    2.5MEG
RR  1 4    666K
RGK 6 5    2.2K
RG  2 6    11.5
RK  3 5    40M
DF  6 4    ZF
DR  1 4    ZR
DGK 6 5    ZGK
.MODEL ZF   D (IS=1.28F IBV=40U BV=500 RS=375K)
.MODEL ZR   D (IS=1.28F IBV=100U BV=666)
.MODEL ZGK  D (IS=1.28F IBV=100U BV=5)
.MODEL POUT PNP (IS=1.28P BF=1 CJE=12N TF=313N TR=13U)
.MODEL NOUT NPN (IS=1.28P BF=100 RC=.16
+ CJE=12N CJC=2.41N TF=313N TR=13U)
.ENDS 
**********
*SRC=TIC106M;TIC106M;SCRs;General;600V 3.2A
*SYM=SCR
*HELP issyntax.hlp "SCRs"
.SUBCKT TIC106M  1 2 3
*    TERMINALS:  A G K
*  600 Volt  3.2 Amp  SCR  12-04-1991
QP  6 4 1  POUT; OFF
QN  4 6 5  NOUT; OFF
RF  6 4    3MEG
RR  1 4    800K
RGK 6 5    2.3K
RG  2 6    11.5
RK  3 5    40M
DF  6 4    ZF
DR  1 4    ZR
DGK 6 5    ZGK
.MODEL ZF   D (IS=1.28F IBV=40U BV=600 RS=450K)
.MODEL ZR   D (IS=1.28F IBV=100U BV=800)
.MODEL ZGK  D (IS=1.28F IBV=100U BV=5)
.MODEL POUT PNP (IS=1.28P BF=1 CJE=12N TF=313N TR=13U)
.MODEL NOUT NPN (IS=1.28P BF=100 RC=.16
+ CJE=12N CJC=2.41N TF=313N TR=13U)
.ENDS 
**********
*SRC=MCR703;MCR703;SCRs;General;100V 4A
*SYM=SCR
*HELP issyntax.hlp "SCRs"
.SUBCKT MCR703   1 2 3
*    TERMINALS:  A G K
* Motorola MCR703 100 Volt  4 Amp  SCR  12-07-1992
QP  6 4 1  POUT; OFF
QN  4 6 5  NOUT; OFF
RF  6 4    400K
RR  1 4    800K
RGK 6 5    2.225K
RG  2 6    46.2
RK  3 5    16.2M
DF  6 4    ZF
DR  1 4    ZR
DGK 6 5    ZGK
.MODEL ZF   D (IS=1.6F IBV=50U BV=100 RS=60K)
.MODEL ZR   D (IS=1.6F IBV=50U BV=400)
.MODEL ZGK  D (IS=1.6F IBV=50U BV=5)
.MODEL POUT PNP (IS=1.6P BF=1 CJE=1.67N)
.MODEL NOUT NPN (IS=1.6P BF=100 RC=65M
+ CJE=1.67N CJC=335P TF=358N TR=51U)
.ENDS 
**********
*SRC=BTW68-120;BTW68120;SCRs;General;1200V 30A
*SYM=SCR
*HELP issyntax.hlp "SCRs"
.SUBCKT BTW68120 1 2 3
*    TERMINALS:  A G K
* SGS-Thomson BTW68-1200 1200 Volt  30 Amp  SCR  03-01-1993
QP  6 4 1  POUT; OFF
QN  4 6 5  NOUT; OFF
RF  6 4    120MEG
RR  1 4    80MEG
RGK 6 5    17
RG  2 6    6.75
RK  3 5    2M
DF  6 4    ZF
DR  1 4    ZR
DGK 6 5    ZGK
.MODEL ZF   D (IS=12F IBV=2U BV=1.2K RS=18MEG)
.MODEL ZR   D (IS=12F IBV=2U BV=1.6K)
.MODEL ZGK  D (IS=12F IBV=2U BV=5)
.MODEL POUT PNP (IS=12P BF=1 CJE=3.77N)
.MODEL NOUT NPN (IS=12P BF=100 RC=8M
+ CJE=3.77N CJC=754P TF=358N TR=170U)
.ENDS 
**********
*SRC=BTW68-100;BTW68100;SCRs;General;1000V 30A
*SYM=SCR
*HELP issyntax.hlp "SCRs"
.SUBCKT BTW68100 1 2 3
*    TERMINALS:  A G K
* SGS-Thomson BTW68-1000 1000 Volt  30 Amp  SCR  03-01-1993
QP  6 4 1  POUT; OFF
QN  4 6 5  NOUT; OFF
RF  6 4    100MEG
RR  1 4    66.6MEG
RGK 6 5    16.5
RG  2 6    6.75
RK  3 5    2M
DF  6 4    ZF
DR  1 4    ZR
DGK 6 5    ZGK
.MODEL ZF   D (IS=12F IBV=2U BV=1K RS=15MEG)
.MODEL ZR   D (IS=12F IBV=2U BV=1.33K)
.MODEL ZGK  D (IS=12F IBV=2U BV=5)
.MODEL POUT PNP (IS=12P BF=1 CJE=3.77N)
.MODEL NOUT NPN (IS=12P BF=100 RC=8M
+ CJE=3.77N CJC=754P TF=358N TR=170U)
.ENDS 
**********
*SRC=BTW68-800;BTW68800;SCRs;General;800V 30A
*SYM=SCR
*HELP issyntax.hlp "SCRs"
.SUBCKT BTW68800 1 2 3
*    TERMINALS:  A G K
* SGS-Thomson BTW68-800 800 Volt  30 Amp  SCR  03-01-1993
QP  6 4 1  POUT; OFF
QN  4 6 5  NOUT; OFF
RF  6 4    80MEG
RR  1 4    53.3MEG
RGK 6 5    18
RG  2 6    6.75
RK  3 5    2M
DF  6 4    ZF
DR  1 4    ZR
DGK 6 5    ZGK
.MODEL ZF   D (IS=12F IBV=2U BV=800 RS=12MEG)
.MODEL ZR   D (IS=12F IBV=2U BV=1.06K)
.MODEL ZGK  D (IS=12F IBV=2U BV=5)
.MODEL POUT PNP (IS=12P BF=1 CJE=3.77N)
.MODEL NOUT NPN (IS=12P BF=100 RC=8M
+ CJE=3.77N CJC=754P TF=358N TR=170U)
.ENDS 
**********
*SRC=BTW68-600;BTW68600;SCRs;General;600V 30A
*SYM=SCR
*HELP issyntax.hlp "SCRs"
.SUBCKT BTW68600 1 2 3
*    TERMINALS:  A G K
* SGS-Thomson BTW68-600 600 Volt  30 Amp  SCR  03-01-1993
QP  6 4 1  POUT; OFF
QN  4 6 5  NOUT; OFF
RF  6 4    60MEG
RR  1 4    40MEG
RGK 6 5    19
RG  2 6    6.75
RK  3 5    2M
DF  6 4    ZF
DR  1 4    ZR
DGK 6 5    ZGK
.MODEL ZF   D (IS=12F IBV=2U BV=600 RS=9MEG)
.MODEL ZR   D (IS=12F IBV=2U BV=800)
.MODEL ZGK  D (IS=12F IBV=2U BV=5)
.MODEL POUT PNP (IS=12P BF=1 CJE=3.77N)
.MODEL NOUT NPN (IS=12P BF=100 RC=8M
+ CJE=3.77N CJC=754P TF=358N TR=170U)
.ENDS 
**********
*SRC=BTW68-400;BTW68400;SCRs;General;400V 30A
*SYM=SCR
*HELP issyntax.hlp "SCRs"
.SUBCKT BTW68400 1 2 3
*    TERMINALS:  A G K
* SGS-Thomson BTW68-400 400 Volt  30 Amp  SCR  03-01-1993
QP  6 4 1  POUT; OFF
QN  4 6 5  NOUT; OFF
RF  6 4    40MEG
RR  1 4    26.6MEG
RGK 6 5    17
RG  2 6    6.75
RK  3 5    2M
DF  6 4    ZF
DR  1 4    ZR
DGK 6 5    ZGK
.MODEL ZF   D (IS=12F IBV=2U BV=400 RS=6MEG)
.MODEL ZR   D (IS=12F IBV=2U BV=533)
.MODEL ZGK  D (IS=12F IBV=2U BV=5)
.MODEL POUT PNP (IS=12P BF=1 CJE=3.77N)
.MODEL NOUT NPN (IS=12P BF=100 RC=8M
+ CJE=3.77N CJC=754P TF=358N TR=170U)
.ENDS 
**********
*SRC=BTW68-200;BTW68200;SCRs;General;200V 30A
*SYM=SCR
*HELP issyntax.hlp "SCRs"
.SUBCKT BTW68200 1 2 3
*    TERMINALS:  A G K
* SGS-Thomson BTW68-200 200 Volt  30 Amp  SCR  03-01-1993
QP  6 4 1  POUT; OFF
QN  4 6 5  NOUT; OFF
RF  6 4    20MEG
RR  1 4    13.3MEG
RGK 6 5    17
RG  2 6    6.75
RK  3 5    2M
DF  6 4    ZF
DR  1 4    ZR
DGK 6 5    ZGK
.MODEL ZF   D (IS=12F IBV=2U BV=200 RS=3MEG)
.MODEL ZR   D (IS=12F IBV=2U BV=266)
.MODEL ZGK  D (IS=12F IBV=2U BV=5)
.MODEL POUT PNP (IS=12P BF=1 CJE=3.77N)
.MODEL NOUT NPN (IS=12P BF=100 RC=8M
+ CJE=3.77N CJC=754P TF=358N TR=170U)
.ENDS 
**********
*SRC=TN023RH02;S023RH02;SCRs;General;200V 48A
*SYM=SCR
*HELP issyntax.hlp "SCRs"
.SUBCKT S023RH02 1 2 3
*    TERMINALS:  A G K
* Westcode TN032RH02 200 Volt  48 Amp  SCR  03-01-1993
QP  6 4 1  POUT; OFF
QN  4 6 5  NOUT; OFF
RF  6 4    80K
RR  1 4    53.3K
RGK 6 5    7.7
RG  2 6    3.7
RK  3 5    1.42M
DF  6 4    ZF
DR  1 4    ZR
DGK 6 5    ZGK
.MODEL ZF   D (IS=19.2F IBV=500U BV=200 RS=12K)
.MODEL ZR   D (IS=19.2F IBV=500U BV=266)
.MODEL ZGK  D (IS=19.2F IBV=500U BV=5)
.MODEL POUT PNP (IS=19.2P BF=1 CJE=6.43N)
.MODEL NOUT NPN (IS=19.2P BF=100 RC=5.71M
+ CJE=6.43N CJC=1.28N TF=537N TR=85U)
.ENDS 
**********
*SRC=TN023RH04;S023RH04;SCRs;General;400V 48A
*SYM=SCR
*HELP issyntax.hlp "SCRs"
.SUBCKT S023RH04 1 2 3
*    TERMINALS:  A G K
* Westcode TN023RH04 400 Volt  48 Amp  SCR  03-01-1993
QP  6 4 1  POUT; OFF
QN  4 6 5  NOUT; OFF
RF  6 4    160K
RR  1 4    106K
RGK 6 5    7.7
RG  2 6    3.7
RK  3 5    1.42M
DF  6 4    ZF
DR  1 4    ZR
DGK 6 5    ZGK
.MODEL ZF   D (IS=19.2F IBV=500U BV=400 RS=24K)
.MODEL ZR   D (IS=19.2F IBV=500U BV=533)
.MODEL ZGK  D (IS=19.2F IBV=500U BV=5)
.MODEL POUT PNP (IS=19.2P BF=1 CJE=6.43N)
.MODEL NOUT NPN (IS=19.2P BF=100 RC=5.71M
+ CJE=6.43N CJC=1.28N TF=537N TR=85U)
.ENDS 
**********
*SRC=TN023RH06;S023RH06;SCRs;General;600V 48A
*SYM=SCR
*HELP issyntax.hlp "SCRs"
.SUBCKT S023RH06 1 2 3
*    TERMINALS:  A G K
* Westcode TN023RH06 600 Volt  48 Amp  SCR  03-01-1993
QP  6 4 1  POUT; OFF
QN  4 6 5  NOUT; OFF
RF  6 4    240K
RR  1 4    160K
RGK 6 5    7.75
RG  2 6    3.7
RK  3 5    1.42M
DF  6 4    ZF
DR  1 4    ZR
DGK 6 5    ZGK
.MODEL ZF   D (IS=19.2F IBV=500U BV=600 RS=36K)
.MODEL ZR   D (IS=19.2F IBV=500U BV=800)
.MODEL ZGK  D (IS=19.2F IBV=500U BV=5)
.MODEL POUT PNP (IS=19.2P BF=1 CJE=6.43N)
.MODEL NOUT NPN (IS=19.2P BF=100 RC=5.71M
+ CJE=6.43N CJC=1.28N TF=537N TR=85U)
.ENDS 
**********
*SRC=TN023RH08;S023RH08;SCRs;General;800V 48A
*SYM=SCR
*HELP issyntax.hlp "SCRs"
.SUBCKT S023RH08 1 2 3
*    TERMINALS:  A G K
* Westcode TN023RH08 800 Volt  48 Amp  SCR  03-01-1993
QP  6 4 1  POUT; OFF
QN  4 6 5  NOUT; OFF
RF  6 4    320K
RR  1 4    213K
RGK 6 5    7.6
RG  2 6    3.7
RK  3 5    1.42M
DF  6 4    ZF
DR  1 4    ZR
DGK 6 5    ZGK
.MODEL ZF   D (IS=19.2F IBV=500U BV=800 RS=48K)
.MODEL ZR   D (IS=19.2F IBV=500U BV=1.06K)
.MODEL ZGK  D (IS=19.2F IBV=500U BV=5)
.MODEL POUT PNP (IS=19.2P BF=1 CJE=6.43N)
.MODEL NOUT NPN (IS=19.2P BF=100 RC=5.71M
+ CJE=6.43N CJC=1.28N TF=537N TR=85U)
.ENDS 
**********
*SRC=TN023RH10;S023RH10;SCRs;General;1000V 48A
*SYM=SCR
*HELP issyntax.hlp "SCRs"
.SUBCKT S023RH10 1 2 3
*    TERMINALS:  A G K
* Westcode TN023RH10 1000 Volt  48 Amp  SCR  03-01-1993
QP  6 4 1  POUT; OFF
QN  4 6 5  NOUT; OFF
RF  6 4    400K
RR  1 4    266K
RGK 6 5    7.75
RG  2 6    7.5
RK  3 5    1.42M
DF  6 4    ZF
DR  1 4    ZR
DGK 6 5    ZGK
.MODEL ZF   D (IS=19.2F IBV=500U BV=1K RS=60K)
.MODEL ZR   D (IS=19.2F IBV=500U BV=1.33K)
.MODEL ZGK  D (IS=19.2F IBV=500U BV=5)
.MODEL POUT PNP (IS=19.2P BF=1 CJE=6.43N)
.MODEL NOUT NPN (IS=19.2P BF=100 RC=5.71M
+ CJE=6.43N CJC=1.28N TF=537N TR=85U)
.ENDS 
**********
*SRC=TN023RH12;S023RH12;SCRs;General;1200V 48A
*SYM=SCR
*HELP issyntax.hlp "SCRs"
.SUBCKT S023RH12 1 2 3
*    TERMINALS:  A G K
* Westcode TN023RH12 1200 Volt  48 Amp  SCR  03-01-1993
QP  6 4 1  POUT; OFF
QN  4 6 5  NOUT; OFF
RF  6 4    480K
RR  1 4    320K
RGK 6 5    8
RG  2 6    3.7
RK  3 5    1.42M
DF  6 4    ZF
DR  1 4    ZR
DGK 6 5    ZGK
.MODEL ZF   D (IS=19.2F IBV=500U BV=1.2K RS=72K)
.MODEL ZR   D (IS=19.2F IBV=500U BV=1.6K)
.MODEL ZGK  D (IS=19.2F IBV=500U BV=5)
.MODEL POUT PNP (IS=19.2P BF=1 CJE=6.43N)
.MODEL NOUT NPN (IS=19.2P BF=100 RC=5.71M
+ CJE=6.43N CJC=1.28N TF=537N TR=85U)
.ENDS 
**********
*SRC=TN023RH15;S023RH15;SCRs;General;1500V 48A
*SYM=SCR
*HELP issyntax.hlp "SCRs"
.SUBCKT S023RH15 1 2 3
*    TERMINALS:  A G K
* Westcode TN023RH15 1500 Volt  48 Amp  SCR  03-01-1993
QP  6 4 1  POUT; OFF
QN  4 6 5  NOUT; OFF
RF  6 4    600K
RR  1 4    400K
RGK 6 5    8.25
RG  2 6    3.7
RK  3 5    1.42M
DF  6 4    ZF
DR  1 4    ZR
DGK 6 5    ZGK
.MODEL ZF   D (IS=19.2F IBV=500U BV=1.5K RS=90K)
.MODEL ZR   D (IS=19.2F IBV=500U BV=2K)
.MODEL ZGK  D (IS=19.2F IBV=500U BV=5)
.MODEL POUT PNP (IS=19.2P BF=1 CJE=6.43N)
.MODEL NOUT NPN (IS=19.2P BF=100 RC=5.71M
+ CJE=6.43N CJC=1.28N TF=537N TR=85U)
.ENDS 
**********
*SRC=S4013PH;S4013PH;SCRs;General;1000V 40A
*SYM=SCR
*HELP issyntax.hlp "SCRs"
.SUBCKT S4013PH  1 2 3
*    TERMINALS:  A G K
* TAG 1000 Volt  40 Amp  SCR  03-01-1993
QP  6 4 1  POUT; OFF
QN  4 6 5  NOUT; OFF
RF  6 4    20MEG
RR  1 4    13.3MEG
RGK 6 5    15
RG  2 6    .849
RK  3 5    1.25M
DF  6 4    ZF
DR  1 4    ZR
DGK 6 5    ZGK
.MODEL ZF   D (IS=16F IBV=10U BV=1K RS=3MEG)
.MODEL ZR   D (IS=16F IBV=10U BV=1.33K)
.MODEL ZGK  D (IS=16F IBV=10U BV=5)
.MODEL POUT PNP (IS=16P BF=1 CJE=3.35N)
.MODEL NOUT NPN (IS=16P BF=100 RC=5M
+ CJE=3.35N CJC=670P TF=179N TR=85U)
.ENDS 
**********
*SRC=S4013VH;S4013VH;SCRs;General;1200V 40A
*SYM=SCR
*HELP issyntax.hlp "SCRs"
.SUBCKT S4013VH  1 2 3
*    TERMINALS:  A G K
* TAG 1200 Volt  40 Amp  SCR  03-01-1993
QP  6 4 1  POUT; OFF
QN  4 6 5  NOUT; OFF
RF  6 4    480K
RR  1 4    320K
RGK 6 5    11.5
RG  2 6    .849
RK  3 5    1.25M
DF  6 4    ZF
DR  1 4    ZR
DGK 6 5    ZGK
.MODEL ZF   D (IS=16F IBV=500U BV=1.2K RS=72K)
.MODEL ZR   D (IS=16F IBV=500U BV=1.6K)
.MODEL ZGK  D (IS=16F IBV=500U BV=5)
.MODEL POUT PNP (IS=16P BF=1 CJE=7.7N)
.MODEL NOUT NPN (IS=16P BF=100 RC=5M
+ CJE=7.7N CJC=1.54N TF=179N TR=85U)
.ENDS 
**********
*SRC=2N682;SN682;SCRs;General;50V 25A
*SYM=SCR
*HELP issyntax.hlp "SCRs"
.SUBCKT SN682    1 2 3
*    TERMINALS:  A G K
* Motorola 2N682 50 Volt  25 Amp  SCR  06-04-1993
QP  6 4 1  POUT; OFF
QN  4 6 5  NOUT; OFF
RF  6 4    10K
RR  1 4    6.66K
RGK 6 5    30
RG  2 6    4.49
RK  3 5    4M
DF  6 4    ZF
DR  1 4    ZR
DGK 6 5    ZGK
.MODEL ZF   D (IS=10F IBV=1M BV=50 RS=1.5K)
.MODEL ZR   D (IS=10F IBV=1M BV=66.6)
.MODEL ZGK  D (IS=10F IBV=1M BV=5)
.MODEL POUT PNP (IS=10P BF=1 CJE=5.58N)
.MODEL NOUT NPN (IS=10P BF=100 RC=16M
+ CJE=5.58N CJC=1.11N TF=316N TR=45.1U)
.ENDS 
**********
*SRC=2N683;SN683;SCRs;General;100V 25A
*SYM=SCR
*HELP issyntax.hlp "SCRs"
.SUBCKT SN683    1 2 3
*    TERMINALS:  A G K
* Motorola 2N683 100 Volt  25 Amp  SCR  06-04-1993
QP  6 4 1  POUT; OFF
QN  4 6 5  NOUT; OFF
RF  6 4    20K
RR  1 4    13.3K
RGK 6 5    25
RG  2 6    4.49
RK  3 5    4M
DF  6 4    ZF
DR  1 4    ZR
DGK 6 5    ZGK
.MODEL ZF   D (IS=10F IBV=1M BV=100 RS=3K)
.MODEL ZR   D (IS=10F IBV=1M BV=133)
.MODEL ZGK  D (IS=10F IBV=1M BV=5)
.MODEL POUT PNP (IS=10P BF=1 CJE=5.58N)
.MODEL NOUT NPN (IS=10P BF=100 RC=16M
+ CJE=5.58N CJC=1.11N TF=316N TR=45.1U)
.ENDS 
**********
*SRC=2N685;SN685;SCRs;General;200V 25A
*SYM=SCR
*HELP issyntax.hlp "SCRs"
.SUBCKT SN685    1 2 3
*    TERMINALS:  A G K
* Motorola 2N685 200 Volt  25 Amp  SCR  06-04-1993
QP  6 4 1  POUT; OFF
QN  4 6 5  NOUT; OFF
RF  6 4    40K
RR  1 4    26.6K
RGK 6 5    24
RG  2 6    4.49
RK  3 5    4M
DF  6 4    ZF
DR  1 4    ZR
DGK 6 5    ZGK
.MODEL ZF   D (IS=10F IBV=1M BV=200 RS=6K)
.MODEL ZR   D (IS=10F IBV=1M BV=266)
.MODEL ZGK  D (IS=10F IBV=1M BV=5)
.MODEL POUT PNP (IS=10P BF=1 CJE=5.58N)
.MODEL NOUT NPN (IS=10P BF=100 RC=16M
+ CJE=5.58N CJC=1.11N TF=316N TR=45.1U)
.ENDS 
**********
*SRC=2N688;SN688;SCRs;General;400V 25A
*SYM=SCR
*HELP issyntax.hlp "SCRs"
.SUBCKT SN688    1 2 3
*    TERMINALS:  A G K
* Motorola 2N688 400 Volt  25 Amp  SCR  06-04-1993
QP  6 4 1  POUT; OFF
QN  4 6 5  NOUT; OFF
RF  6 4    80K
RR  1 4    53.3K
RGK 6 5    24
RG  2 6    4.49
RK  3 5    4M
DF  6 4    ZF
DR  1 4    ZR
DGK 6 5    ZGK
.MODEL ZF   D (IS=10F IBV=1M BV=400 RS=12K)
.MODEL ZR   D (IS=10F IBV=1M BV=533)
.MODEL ZGK  D (IS=10F IBV=1M BV=5)
.MODEL POUT PNP (IS=10P BF=1 CJE=5.58N)
.MODEL NOUT NPN (IS=10P BF=100 RC=16M
+ CJE=5.58N CJC=1.11N TF=316N TR=45.1U)
.ENDS 
**********
*SRC=2N690;SN690;SCRs;General;600V 25A
*SYM=SCR
*HELP issyntax.hlp "SCRs"
.SUBCKT SN690    1 2 3
*    TERMINALS:  A G K
* Motorola 2N690 600 Volt  25 Amp  SCR  06-04-1993
QP  6 4 1  POUT; OFF
QN  4 6 5  NOUT; OFF
RF  6 4    120K
RR  1 4    80K
RGK 6 5    24
RG  2 6    4.49
RK  3 5    4M
DF  6 4    ZF
DR  1 4    ZR
DGK 6 5    ZGK
.MODEL ZF   D (IS=10F IBV=1M BV=600 RS=18K)
.MODEL ZR   D (IS=10F IBV=1M BV=800)
.MODEL ZGK  D (IS=10F IBV=1M BV=5)
.MODEL POUT PNP (IS=10P BF=1 CJE=5.58N)
.MODEL NOUT NPN (IS=10P BF=100 RC=16M
+ CJE=5.58N CJC=1.11N TF=316N TR=45.1U)
.ENDS 
**********
*SRC=2N692;SN692;SCRs;General;800V 25A
*SYM=SCR
*HELP issyntax.hlp "SCRs"
.SUBCKT SN692    1 2 3
*    TERMINALS:  A G K
* Motorola 2N692 800 Volt  25 Amp  SCR  06-04-1993
QP  6 4 1  POUT; OFF
QN  4 6 5  NOUT; OFF
RF  6 4    160K
RR  1 4    106K
RGK 6 5    24
RG  2 6    4.49
RK  3 5    4M
DF  6 4    ZF
DR  1 4    ZR
DGK 6 5    ZGK
.MODEL ZF   D (IS=10F IBV=1M BV=800 RS=24K)
.MODEL ZR   D (IS=10F IBV=1M BV=1.06K)
.MODEL ZGK  D (IS=10F IBV=1M BV=5)
.MODEL POUT PNP (IS=10P BF=1 CJE=5.58N)
.MODEL NOUT NPN (IS=10P BF=100 RC=16M
+ CJE=5.58N CJC=1.11N TF=316N TR=45.1U)
.ENDS 
**********
*SRC=2N1595;SN1595;SCRs;General;50V 1.6A
*SYM=SCR
*HELP issyntax.hlp "SCRs"
.SUBCKT SN1595   1 2 3
*    TERMINALS:  A G K
* Motorola 2N1595 50 Volt  1.6 Amp  SCR  06-04-1993
QP  6 4 1  POUT; OFF
QN  4 6 5  NOUT; OFF
RF  6 4    10MEG
RR  1 4    6.66MEG
RGK 6 5    210
RG  2 6    92.9
RK  3 5    80M
DF  6 4    ZF
DR  1 4    ZR
DGK 6 5    ZGK
.MODEL ZF   D (IS=.64F IBV=1U BV=50 RS=1.5MEG)
.MODEL ZR   D (IS=.64F IBV=1U BV=66.6)