**************
*SRC=LM101S;LM101S;Opamps;SGS;General Purpose JFET
*SYM=SGSOPAMP
.SUBCKT LM101S 1 3 2 4 5 
.MODEL MDTH D IS=1E-8 KF=1.025862E-15 CJO=10F
*INPUT STAGE
CIP 2 5 1.000000E-12
CIN 1 5 1.000000E-12
EIP 10 5 2 5 1
EIN 16 5 1 5 1
RIP 10 11 1.625000E+01
RIN 15 16 1.625000E+01
RIS 11 15 7.476714E+01
DIP 11 12 MDTH 400E-12
DIN 15 14 MDTH 400E-12
VOFP 12 13 DC 0.000000E+00
VOFN 13 14 DC 0
IPOL 13 5 1.600000E-05
CPS 11 15 2.5E-09
DINN 17 13 MDTH 400E-12
VIN 17 5 0.000000e+00
DINR 15 18 MDTH 400E-12
VIP 4 18 0.000000E+00
FCP 4 5 VOFP 1.115000E+02
FCN 5 4 VOFN 1.115000E+02
FIBP 2 5 VOFP 1.875000E-04
FIBN 5 1 VOFN 1.875000E-04
* AMPLIFYING STAGE
FIP 5 19 VOFP 9.375000E+02
FIN 5 19 VOFN 9.375000E+02
RG1 19 5 9.981802E+05
RG2 19 4 9.981802E+05
CC 19 29 3.000000E-08
HZTP 30 29 VOFP 5.535733E+02
HZTN 5 30 VOFN 5.535733E+02
DOPM 19 22 MDTH 400E-12
DONM 21 19 MDTH 400E-12
HOPM 22 28 VOUT 5.000000E+03
VIPM 28 4 1.500000E+02
HONM 21 27 VOUT 5.000000E+03
VINM 5 27 1.500000E+02
EOUT 26 23 19 5 1
VOUT 23 5 0
ROUT 26 3 200
COUT 3 5 1.000000E-12
DOP 19 25 MDTH 400E-12
VOP 4 25 1.480450E+00
DON 24 19 MDTH 400E-12
VON 24 5 1.480450E+00
.ENDS
**********
*SRC=MC1458S;MC1458S;Opamps;SGS;
*SYM=SGSOPAMP
.SUBCKT MC1458S 1 3 2 4 5 
.MODEL MDTH D IS=1E-8 KF=9.728631E-16 CJO=10F
*INPUT STAGE
CIP 2 5 1.4000000E-12
CIN 1 5 1.4000000E-12
EIP 10 5 2 5 1
EIN 16 5 1 5 1
RIP 10 11 1.040000E+04
RIN 15 16 1.040000E+04
RIS 11 15 8.993325E+04
DIP 11 12 MDTH 400E-12
DIN 15 14 MDTH 400E-12
VOFP 12 13 DC 0
VOFN 13 14 DC 0
IPOL 13 5 5.000000E-06
CPS 11 15 2.715680E-12
DINN 17 13 MDTH 400E-12
VIN 17 5 3.000000e+00
DINR 15 18 MDTH 400E-12
VIP 4 18 3.000000E+00
FCP 4 5 VOFP 1.972759E+02
FCN 5 4 VOFN 1.972759E+02
FIBP 2 5 VOFN 1.034483E-02
FIBN 5 1 VOFP 1.034483E-02
* AMPLIFYING STAGE
FIP 5 19 VOFP 4.827586E+02
FIN 5 19 VOFN 4.827586E+02
RG1 19 5 1.918174E+07
RG2 19 4 1.918174E+07
CC 19 29 3.000000E-09
HZTP 30 29 VOFP 5.729583E+03
HZTN 5 30 VOFN 5.729583E+03
DOPM 19 22 MDTH 400E-12
DONM 21 19 MDTH 400E-12
HOPM 22 28 VOUT 6.380000E+03
VIPM 28 4 1.100000E+02
HONM 21 27 VOUT 6.380000E+03
VINM 5 27 1.000000+02
EOUT 26 23 19 5 1
VOUT 23 5 0
ROUT 26 3 100
COUT 3 5 1.000000E-12
DOP 19 25 MDTH 400E-12
VOP 4 25 2.1
DON 24 19 MDTH 400E-12
VON 24 5 2.1
.ENDS
**********
*SRC=MC3403S;MC3403S;Opamps;SGS;
*SYM=SGSOPAMP
.SUBCKT MC3403S 1 3 2 4 5  
.MODEL MDTH D IS=1E-8 KF=2.276045E-15 CJO=10F
*INPUT STAGE
CIP 2 5 1.000000E-12
CIN 1 5 1.000000E-12
EIP 10 5 2 5 1
EIN 16 5 1 5 1
RIP 10 11 2.166667E+01
RIN 15 16 2.166667E+01
RIS 11 15 8.589028E+01
DIP 11 12 MDTH 400E-12
DIN 15 14 MDTH 400E-12
VOFP 12 13 DC 0
VOFN 13 14 DC 0
IPOL 13 5 1.200000E-05
CPS 11 15 1.22007E-09
DINN 17 13 MDTH 400E-12
VIN 17 5 0.000000e+00
DINR 15 18 MDTH 400E-12
VIP 4 18 2.000000E+00
FCP 4 5 VOFP 5.733333E+01
FCN 5 4 VOFN 5.733333E+01 
FIBP 2 5 VOFN 6.666667E-03
FIBN 5 1 VOFP 6.666667E-03
* AMPLIFYING STATE
RG1 19 5 6.960807E+06
RG2 19 4 6.960807E+06
CC 19 29 9.000000E-09
HZTP 30 29 VOFP 1.545442E+03
HZTN 5 30 VOFN 1.545442E+03
DOPM 19 22 MDTH 400E-12
DONM 21 19 MDTH 400E-12 
HOPM 22 28 VOUT 6.000000E+03
VIPM 28 4 1.800000E+02
HONM 21 27 VOUT 6.000000E+03
VINM 5 27 1.800000E+02
EOUT 26 23 19 5 1
VOUT 23 5 0
ROUT 26 3 100
COUT 3 5 1.000000E-12
DOP 19 25 MDTH 400E-12
VOP 4 25 2.24
DON 24 19 MDTH 400E-12
VON 24 5 2.24
.ENDS
**********
*SRC=MC4558S;MC4558S;Opamps;SGS;
*SYM=SGSOPAMP
.SUBCKT MC4558S 1 3 2 4 5 
.MODEL MDTH D IS=1E-8 KF=3.103536E-16 CJO=10F
*INPUT STAGE
CIP 2 5 1.400000E-12
CIN 1 5 1.400000E-12
EIP 10 5 2 5 1
EIN 16 5 1 5 1
RIP 10 11 1.238095E+01
RIN 15 16 1.238095E+01
RIS 11 15 1.142635E+02
DIP 11 12 MDTH 400E-12
DIN 15 14 MDTH 400E-12
VOFP 12 13 DC 0
VOFN 13 14 DC 0
IPOL 13 5 2.100000E-05
CPS 11 15 5.9E-10
DINN 17 13 MDTH 400E-12
VIN 17 5 3.000000e+00
DINR 15 18 MDTH 400E-12
VIP 4 18 3.000000E+00
FCP 4 5 VOFP 5.376190E+01
FCN 5 4 VOFN 5.376190E+01
FIBP 2 5 VOFN 1.904762E-03
FIBN 5 1 VOFP 1.904762E-03
* AMPLIFYING STATE
FIP 5 19 VOFP 1.361905E+03
FIN 5 19 VOFN 1.361905E+03
RG1 19 5 8.864107E+05
RG2 19 4 8.864107E+05
CC 19 29 1.300000E-08
HZTP 30 29 VOFP 8.862530E+02
HZTN 5 30 VOFN 8.862530E+02
DOPM 19 22 MDTH 400E-12
DONM 21 19 MDTH 400E-12
HOPM 22 28 VOUT 7.500000E+03
VIPM 28 4 1.500000E+02
HONM 21 27 VOUT 7.500000E+03
VINM 5 27 1.500000E+02
GCOMP 5 4 4 5 6.485084E-04
RPM1 5 80 1E+09
RPM2 4 80 1E+09
GAVPH 5 82 19 80 2.59E-03
RAVPHGH 82 4 771
RAVPHGB 82 5 771
RAVPHDH 82 83 1000
RAVPHDB 82 84 1000
CAVPHH 4 83 0.331E-09
CAVPHB 5 84 0.331E-09
EOUT 26 23 82 5 1
VOUT 23 5 0
ROUT 26 3 120
COUT 3 5 1.000000E-12
DOP 19 25 MDTH 400E-12
VOP 4 25 1.981520E+00
DON 24 19 MDTH 400E-12
VON 24 5 1.981520E+00
.ENDS
**********
*SRC=MC34001S;MC34001S;Opamps;SGS;
*SYM=SGSOPAMP
.SUBCKT MC34001S 1 3 2 4 5 
.MODEL MDTH D IS=1E-8 KF=5.306587E-14 CJO=10F
*INPUT STAGE
CIP 2 5 1.000000E-12
CIN 1 5 1.000000E-12
EIP 10 5 2 5 1
EIN 16 5 1 5 1
RIP 10 11 1.130435E+00
RIN 15 16 1.130435E+00
RIS 11 15 2.476554E-01
DIP 11 12 MDTH 400E-12
DIN 15 14 MDTH 400E-12
VOFP 12 13 DC 0
VOFN 13 14 DC 0
IPOL 13 5 2.300000E-04
CPS 11 15 4.091333E-08
DINN 17 13 MDTH 400E-12
VIN 17 5 3.000000e+00
DINR 15 18 MDTH 400E-12
VIP 4 18 0.000000E+00
FCP 4 5 VOFP 6.096957E+00
FCN 5 4 VOFN 6.096957E+00
* AMPLIFYING STATE
FIP 5 19 VOFP 8.217391E+02
FIN 5 19 VOFN 8.217391E+02
RG1 19 5 1.112645E+06
RG2 19 4 1.112645E+06
CC 19 29 1.300000E-08
HZTP 30 29 VOFP 7.743183E+02
HZTN 5 30 VOFN 7.743183E+02
DOPM 19 22 MDTH 400E-12
DONM 21 19 MDTH 400E-12
HOPM 22 28 VOUT 3.750000E+03
VIPM 28 4 1.500000E+02
HONM 21 27 VOUT 3.750000E+03
VINM 5 27 1.500000E+02
EOUT 26 23 19 5 1
VOUT 23 5 0
ROUT 26 3 9.384786E+01
COUT 3 5 1.000000E-12
DOP 19 25 MDTH 400E-12
VOP 4 25 3.259753E+00
DON 24 19 MDTH 400E-12
VON 24 5 3.259753E+00
.ENDS
**********
*SRC=MC33078S;MC33078S;Opamps;SGS;
*SYM=SGSOPAMP
.SUBCKT MC33078S 1 3 2 4 5 
.MODEL MDTH D IS=1E-8 KF=2.286238E-16 CJO=10F
*INPUT STAGE
CIP 2 5 1.200000E-11
CIN 1 5 1.200000E-11
EIP 10 5 2 5 1
EIN 16 5 1 5 1
RIP 10 11 2.363636E+00
RIN 15 16 2.363636E+00
RIS 11 15 1.224040E+01
DIP 11 12 MDTH 400E-12
DIN 15 14 MDTH 400E-12
VOFP 12 13 DC 0
VOFN 13 14 DC 0
IPOL 13 5 1.100000E-05
CPS 11 15 2.35E-09
DINN 17 13 MDTH 400E-12
VIN 17 5 1.000000e+00
DINR 15 18 MDTH 400E-12
VIP 4 18 1.000000E+00
FCP 4 5 VOFP 1.718182E+01
FCN 5 4 VOFN 1.718182E+01
FIBP 2 5 VOFN 4.545455E-03
FIBN 5 1 VOFP 4.545455E-03
* AMPLIFYING STATE
FIP 5 19 VOFP 9.545455E+02
FIN 5 19 VOFN 9.545455E+02
CC 19 29 1.500000E-08
HZTP 30 29 VOFP 1.523529E+02
HZTN 5 30 VOFN 1.523529E+02
DOPM 51 22 MDTH 400E-12
DONM 21 52 MDTH 400E-12
HOPM 22 28 VOUT 5.172414E+03
VIPM 28 4 1.500000E+02
HONM 21 27 VOUT 5.054054E+03
VINM 5 27 1.500000E+02
DBIDON1 19 53 MDTH 400E-12
V1 51 53 0.68
DBIDON2 54 19 MDTH 400E-12
V2 54 52 0.68
RG11 51 5 3.04E+05
RG12 51 4 3.04E+05
RG21 52 5 0.6072E+05
RG22 52 4 0.6072E+05
E1 50 40 51 0 1
E2 40 39 52 0 1
EDEC1 38 39 4 0 0.5
EDEC2 0 38 5 0 0.5
DOP 51 25 MDTH 400E-12
VOP 4 25 1.474575E+00
DON 24 52 MDTH 400E-12
VON 24 5 1.474575E+00
RAJUS 50 5 1E12
GCOMP 5 4 4 5 8.1566068E-04
RPM1 5 80 1E+06
RPM2 4 80 1E+06
GAVPH 5 82 50 80 3.26E-03
RAVPHGH 82 4 613
RAVPHGB 82 5 613
RAVPHDH 82 83 1000
RAVPHDB 82 84 1000
CAVPHH 4 83 0.159E-09
CAVPHB 5 84 0.159E-09
EOUT 26 23 82 5 1
VOUT 23 5 0
ROUT 26 3 4.780354E+01
COUT 3 5 1.000000E-12
.ENDS
*********
*SRC=MC33171S;MC33171S;Opamps;SGS;
*SYM=SGSOPAMP
.SUBCKT MC33171S 1 3 2 4 5 
.MODEL MDTH D IS=1E-8 KF=1.293682E-15 CJO=10F
.MODEL NDTH D IS=1E-12
*INPUT STAGE
CIP 2 5 1.000000E-12
CIN 1 5 1.000000E-12
EIP 10 5 2 5 1
EIN 16 5 1 5 1
RIP 10 11 1.733333E+01
RIN 15 16 1.733333E+01
RIS 11 15 1.817522E+01
DIP 11 12 MDTH 400E-12
DIN 15 14 MDTH 400E-12
VOFP 12 13 DC 0
VOFN 13 14 DC 0
IPOL 13 5 1.500000E-05
CPS 11 15 1.848544E-09
DINN 17 13 MDTH 400E-12
VIN 17 5 0.000000e+00
DINR 15 18 MDTH 400E-12
VIP 4 18 1.800000E+00
FCP 4 5 VOFP 1.366667E+01
FCN 5 4 VOFN 1.366667E+01 
FIBP 2 5 VOFP 6.666667E-04
FIBN 5 1 VOFN 6.666667E-04
* AMPLIFYING STATE
FIP 5 19 VOFP 7.333333E+02
FIN 5 19 VOFN 7.333333E+02
DOPM 51 22 MDTH 400E-12
DONM 21 52 MDTH 400E-12
HOPM 22 28 VOUT 2.500000E+04
VIPM 28 4 1.500000E+02
HONM 21 27 VOUT 5.555556E+03
VINM 5 27 1.500000E+02
CC 19 29 5E-09
HZTP 30 29 VOFP 4.931638E+03
HZTN 5 30 VOFN 4.931638E+03
DPOS 19 51 NDTH 400E-12
DNEG 52 19 NDTH 400E-12
IBD11 4 19 1U
IBD12 51 5 1U
IBD21 4 52 1U
IBD22 19 5 1U
RG11 51 5 1.54E+06
RG12 51 4 1.54E+06
RG21 52 5 3.48E+06
RG22 52 4 3.48E+06
E1 50 40 51 0 1
E2 40 39 52 0 1
EDEC1 38 39 4 0 0.5
EDEC2 0 38 5 0 0.5
RFOL 50 5 1E12
EOUT 26 23 50 5 1
VOUT 23 5 0
ROUT 26 3 100
COUT 3 5 1.000000E-12
DOP 51 25 MDTH 400E-12
VOP 4 25 3.1
DON 24 52 MDTH 400E-12
VON 24 5 2.4
.ENDS
**********
*SRC=OP07S;OP07S;Opamps;SGS;
*SYM=SGSOPAMP
.SUBCKT OP07S 1 3 2 4 5 
.MODEL MDTH D IS=1E-8 KF=1.038928E-16 CJO=10F
*INPUT STAGE
CIP 2 5 1.000000E-12
CIN 1 5 1.000000E-12
EIP 10 5 2 5 1
EIN 16 5 1 5 1
RIP 10 11 2.600000E+01
RIN 15 16 2.600000E+01
RIS 11 15 1.006993E+04
DIP 11 12 MDTH 400E-12
DIN 15 14 MDTH 400E-12
VOFP 12 13 DC 0.000000E+00
VOFN 13 14 DC 0
IPOL 13 5 1.000000E-05
CPS 11 15 1.626413E-09
DINN 17 13 MDTH 400E-12
VIN 17 5 2.000000e+00
DINR 15 18 MDTH 400E-12
VIP 4 18 2.000000E+00
FCP 4 5 VOFP 2.690000E+02
FCN 5 4 VOFN 2.690000E+02
FIBP 2 5 VOFP 1.600000E-04
FIBN 5 1 VOFN 1.600000E-04
* AMPLIFYING STATE
FIP 5 19 VOFP 2.380000E+02
FIN 5 19 VOFN 2.380000E+02
RG1 19 5 1.757309E+07
RG2 19 4 1.757309E+07
CC 19 29 1.400000E-08
HZTP 30 29 VOFP 2E+03
HZTN 5 30 VOFN 2E+03
DOPM 19 22 MDTH 400E-12
DONM 21 19 MDTH 400E-12
HOPM 22 28 VOUT 5.000000E+03
VIPM 28 4 1.500000E+02
HONM 21 27 VOUT 6.000000E+03
VINM 5 27 1.500000E+02
EOUT 26 23 19 5 1
VOUT 23 5 0
ROUT 26 3 110
COUT 3 5 1.000000E-12
DOP 19 25 MDTH 400E-12
VOP 4 25 3.610230E+00
DON 24 19 MDTH 400E-12
VON 24 5 3.610230E+00
.ENDS
**********
*SRC=TDA7910S;TDA7910S;Opamps;SGS;
*SYM=SGSOPAMP
.SUBCKT TDA7910S 1 3 2 4 5 
.MODEL MDTH D IS=1E-8 KF=8.666254E-32 CJO=10F
*INPUT STAGE
CIP 2 5 1.000000E-12
CIN 1 5 1.000000E-12
EIP 10 5 2 5 1
EIN 16 5 1 5 1
RIP 10 11 7.878788E+00
RIN 15 16 7.878788E+00
RIS 11 15 3.405258E+01
DIP 11 12 MDTH 400E-12
DIN 15 14 MDTH 400E-12
VOFP 12 13 DC 0
VOFN 13 14 DC 0
IPOL 13 5 3.300000E-05
CPS 11 15 6.842422E-09
DINN 17 13 MDTH 400E-12
VIN 17 5 2.000000e+00
DINR 15 18 MDTH 400E-12
VIP 4 18 2.000000E+00
FCP 4 5 VOFP 1.415152E+01
FCN 5 4 VOFN 1.415152E+01
FIBP 2 5 VOFN 4.848485E-03
FIBN 5 1 VOFP 4.848485E-03
* AMPLIFYING STATE
FIP 5 19 VOFP 4.318182E+02
FIN 5 19 VOFN 4.318182E+02
RG1 19 5 2.137314E+05
RG2 19 4 2.137314E+05
CC 19 29 2.800000E-08
HZTP 30 29 VOFP 4.262675E+02
HZTN 5 30 VOFN 4.262675E+02
DOPM 19 22 MDTH 400E-12
DONM 21 19 MDTH 400E-12
HOPM 22 28 VOUT 194.83
VIPM 28 4 94.5
HONM 21 27 VOUT 194.83
VINM 5 27 94.5
EOUT 26 23 19 5 1
VOUT 23 5 0
ROUT 26 3 20
COUT 3 5 1.000000E-12
DOP 3 25 MDTH 400E-12
VOP 4 25 3.773272E+00
DON 24 3 MDTH 400E-12
VON 24 5 3.773272E+00
.ENDS
**********
*SRC=TEB1033S;TEB1033S;Opamps;SGS;
*SYM=SGSOPAMP
.SUBCKT TEB1033S 1 3 2 4 5 
.MODEL MDTH D IS=1E-8 KF=1.313592E-16 CJO=10F
*INPUT STAGE
CIP 2 5 1.000000E-12
CIN 1 5 1.000000E-12
EIP 10 5 2 5 1
EIN 16 5 1 5 1
RIP 10 11 1.300000E+01
RIN 15 16 1.300000E+01
RIS 11 15 1.119206E+02
DIP 11 12 MDTH 400E-12
DIN 15 14 MDTH 400E-12
VOFP 12 13 DC 0
VOFN 13 14 DC 0
IPOL 13 5 2.000000E-05
CPS 11 15 7.60E-10
DINN 17 13 MDTH 400E-12
VIN 17 5 3.000000e+00
DINR 15 18 MDTH 400E-12
VIP 4 18 3.000000E+00
FCP 4 5 VOFP 2.400000E+01
FCN 5 4 VOFN 2.400000E+01
FIBP 2 5 VOFN 5.000000E-03
FIBN 5 1 VOFP 5.000000E-03
* AMPLIFYING STATE
FIP 5 19 VOFP 1.150000E+03
FIN 5 19 VOFN 1.150000E+03
RG1 19 5 1.670256E+06
RG2 19 4 1.670256E+06
CC 19 29 2.300000E-08
HZTP 30 29 VOFP 7.936240E+02
HZTN 5 30 VOFN 7.936240E+02
DOPM 19 22 MDTH 400E-12
DONM 21 19 MDTH 400E-12
HOPM 22 28 VOUT 6.521739E+03
VIPM 28 4 1.500000E+02
HONM 21 27 VOUT 6.521739E+03
VINM 5 27 1.500000E+02
GCOMP 5 4 4 5 6.393861E-04
RPM1 5 80 1E+06
RPM2 4 80 1E+06
GAVPH 5 82 19 80 2.56E-03
RAVPHGH 82 4 782
RAVPHGB 82 5 782
RAVPHDH 82 83 1000
RAVPHDB 82 84 1000
CAVPHH 4 83 0.595E-09
CAVPHB 5 84 0.595E-09
EOUT 26 23 82 5 1
VOUT 23 5 0
ROUT 26 3 8.858633E+01
COUT 3 5 1.000000E-12
DOP 19 25 MDTH 400E-12
VOP 4 25 1.760252E+00
DON 24 19 MDTH 400E-12
VON 24 5 1.760252E+00
.ENDS
*********
*SRC=TL061S;TL061S;Opamps;SGS;
*SYM=SGSOPAMP
.SUBCKT TL061S 1 3 2 4 5 
.MODEL MDTH D IS=1E-8 KF=1.175758E-14 CJO=10F
*INPUT STAGE
CIP 2 5 1.000000E-12
CIN 1 5 1.000000E-12
EIP 10 5 2 5 1
EIN 16 5 1 5 1
RIP 10 11 4.000000E+00
RIN 15 16 4.000000E+00
RIS 11 15 9.848265E+01
DIP 11 12 MDTH 400E-12
DIN 15 14 MDTH 400E-12
VOFP 12 13 DC 0
VOFN 13 14 DC 0
IPOL 13 5 6.500000E-05
CPS 11 15 2.981372E-08
DINN 17 13 MDTH 400E-12
VIN 17 5 3.000000e+00
DINR 15 18 MDTH 400E-12
VIP 4 18 3.000000E+00
FCP 4 5 VOFP 2.076923E+00
FCN 5 4 VOFN 2.076923E+00
* AMPLIFYING STATE
FIP 5 19 VOFP 5.384615E+02
FIN 5 19 VOFN 5.384615E+02
GVNEG 5 19 5 13 1.311224E-06
GVPOS 5 19 4 13 1.311224E-06
RG1 19 5 1.626871E+05
RG2 19 4 1.626871E+05
CC 19 29 1.000000E-08
HZTP 30 29 VOFP 2.558489E+03
HZTN 5 30 VOFN 2.558489E+03
DOPM 19 22 MDTH 400E-12
DONM 21 19 MDTH 400E-12
HOPM 22 28 VOUT 3.750000E+03
VIPM 28 4 9.000000E+01
HONM 21 27 VOUT 9.000000E+03
VINM 5 27 9.000000E+01
EOUT 26 23 19 5 1
VOUT 23 5 0
ROUT 26 3 100
COUT 3 5 1.000000E-12
DOP 19 25 MDTH 400E-12
VOP 4 25 2.290897E+00
DON 24 19 MDTH 400E-12
VON 24 5 2.290897E+00
.ENDS
**********
*SRC=TL071S;TL071S;Opamps;SGS;
*SYM=SGSOPAMP
.SUBCKT TL071S 1 3 2 4 5 
.MODEL MDTH D IS=1E-8 KF=5.306587E-14 CJO=10F
*INPUT STAGE
CIP 2 5 1.000000E-12
CIN 1 5 1.000000E-12
EIP 10 5 2 5 1
EIN 16 5 1 5 1
RIP 10 11 1.130435E+00
RIN 15 16 1.130435E+00
RIS 11 15 2.476554E+01
DIP 11 12 MDTH 400E-12
DIN 15 14 MDTH 400E-12
VOFP 12 13 DC 0
VOFN 13 14 DC 0
IPOL 13 5 2.300000E-04
CPS 11 15 4.091333E-08
DINN 17 13 MDTH 400E-12
VIN 17 5 3.000000e+00
DINR 15 18 MDTH 400E-12
VIP 4 18 0.000000E+00
FCP 4 5 VOFP 6.096957E+00
FCN 5 4 VOFN 6.096957E+00
* AMPLIFYING STATE
FIP 5 19 VOFP 8.217391E+02
FIN 5 19 VOFN 8.217391E+02
RG1 19 5 1.112645E+06
RG2 19 4 1.112645E+06
CC 19 29 1.300000E-08
HZTP 30 29 VOFP 7.743183E+02
HZTN 5 30 VOFN 7.743183E+02
DOPM 19 22 MDTH 400E-12
DONM 21 19 MDTH 400E-12
HOPM 22 28 VOUT 3.750000E+03
VIPM 28 4 1.500000E+02
HONM 21 27 VOUT 3.750000E+03
VINM 5 27 1.500000E+02
EOUT 26 23 19 5 1
VOUT 23 5 0
ROUT 26 3 9.384786E+01
COUT 3 5 1.000000E-12
DOP 19 25 MDTH 400E-12
VOP 4 25 3.259753E+00
DON 24 19 MDTH 400E-12
VON 24 5 3.259753E+00
.ENDS
**********
*SRC=TL081S;TL081S;Opamps;SGS;
*SYM=SGSOPAMP
.SUBCKT TL081S 1 3 2 4 5 
.MODEL MDTH D IS=1E-8 KF=5.306587E-14 CJO=10F
*INPUT STAGE
CIP 2 5 1.000000E-12
CIN 1 5 1.000000E-12
EIP 10 5 2 5 1
EIN 16 5 1 5 1
RIP 10 11 1.130435E+00
RIN 15 16 1.130435E+00
RIS 11 15 2.476554E+01
DIP 11 12 MDTH 400E-12
DIN 15 14 MDTH 400E-12
VOFP 12 13 DC 0
VOFN 13 14 DC 0
IPOL 13 5 2.300000E-04
CPS 11 15 4.091333E-08
DINN 17 13 MDTH 400E-12
VIN 17 5 3.000000e+00
DINR 15 18 MDTH 400E-12
VIP 4 18 0.000000E+00
FCP 4 5 VOFP 6.096957E+00
FCN 5 4 VOFN 6.096957E+00
* AMPLIFYING STATE
FIP 5 19 VOFP 8.217391E+02
FIN 5 19 VOFN 8.217391E+02
RG1 19 5 1.112645E+06
RG2 19 4 1.112645E+06
CC 19 29 1.300000E-08
HZTP 30 29 VOFP 7.743183E+02
HZTN 5 30 VOFN 7.743183E+02
DOPM 19 22 MDTH 400E-12
DONM 21 19 MDTH 400E-12
HOPM 22 28 VOUT 3.750000E+03
VIPM 28 4 1.500000E+02
HONM 21 27 VOUT 3.750000E+03
VINM 5 27 1.500000E+02
EOUT 26 23 19 5 1
VOUT 23 5 0
ROUT 26 3 9.384786E+01
COUT 3 5 1.000000E-12
DOP 19 25 MDTH 400E-12
VOP 4 25 3.259753E+00
DON 24 19 MDTH 400E-12
VON 24 5 3.259753E+00
.ENDS
**********
*SRC=TS271LS;TS271LS;Opamps;SGS;
*SYM=SGSOPAMP
.SUBCKT TS271LS 1 3 2 4 5 
.MODEL MDTH D IS=1E-8 KF=5.029059E-14 CJO=10F
*INPUT STAGE
CIP 2 5 4.500000E-13
CIN 1 5 4.500000E-13
EIP 10 5 2 5 1
EIN 16 5 1 5 1
RIP 10 11 2.600000E+01
RIN 15 16 2.600000E+01
RIS 11 15 2.503337E+02
DIP 11 12 MDTH 400E-12
DIN 15 14 MDTH 400E-12
VOFP 12 13 DC 0.000000E+00
VOFN 13 14 DC 0
IPOL 13 5 1.000000E-05
CPS 11 15 8.650557E-09
DINN 17 13 MDTH 400E-12
VIN 17 5 -0.5000000e+00
DINR 15 18 MDTH 400E-12
VIP 4 18 1.600000E+00
FCP 4 5 VOFP 0.15
FCN 5 4 VOFN 0.15TS271L
* AMPLIFYING STATE
FIP 5 19 VOFP 2.800000E+01
FIN 5 19 VOFN 2.800000E+01
RG1 19 5 4.504399E+07
RG2 19 4 4.504399E+07
CC 19 29 7.000000E-09
HZTP 30 29 VOFP 0.55E+04
HZTN 5 30 VOFN 0.55E+04
DOPM 19 22 MDTH 400E-12
DONM 21 19 MDTH 400E-12
HOPM 22 28 VOUT 2500
VIPM 28 4 150
HONM 21 27 VOUT 3325
VINM 5 27 150
EOUT 26 23 19 5 1
VOUT 23 5 0
ROUT 26 3 100
COUT 3 5 1.600000E-12
DOP 19 25 MDTH 400E-12
VOP 4 25 1.742230E+00
DON 24 19 MDTH 400E-12
VON 24 5 8.3E-01
.ENDS
**********
*SRC=TS274S;TS274S;Opamps;SGS;
*SYM=SGSOPAMP
.SUBCKT TS274S 1 3 2 4 5 
.MODEL MDTH D IS=1E-8 KF=4.153126E-14 CJO=10F
*INPUT STAGE
CIP 2 5 1.000000E-12
CIN 1 5 1.000000E-12
EIP 10 5 2 5 1
EIN 16 5 1 5 1
RIP 10 11 5.777778E+00
RIN 15 16 5.777778E+00
RIS 11 15 3.301276E+00
DIP 11 12 MDTH 400E-12
DIN 15 14 MDTH 400E-12
VOFP 12 13 DC 0.000000E+00
VOFN 13 14 DC 0
IPOL 13 5 4.500000E-05
CPS 11 15 5.678186E-09
DINN 17 13 MDTH 400E-12
VIN 17 5 -0.500000e+00
DINR 15 18 MDTH 400E-12
VIP 4 18 1.600000E+00
FCP 4 5 VOFP 2.122222E+01
FCN 5 4 VOFN 2.122222E+01
* AMPLIFYING STATE
FIP 5 19 VOFP 8.555556E+02
FIN 5 19 VOFN 8.555556E+02
RG1 19 5 1.825153E+05
RG2 19 4 1.825153E+05
CC 19 29 7.000000E-09
HZTP 30 29 VOFP 1.435497E+03
HZTN 5 30 VOFN 1.435497E+03
DOPM 19 22 MDTH 400E-12
DONM 21 19 MDTH 400E-12
HOPM 22 28 VOUT 2500
VIPM 28 4 150
HONM 21 27 VOUT 3325
VINM 5 27 150
EOUT 26 23 19 5 1
VOUT 23 5 0
ROUT 26 3 50
COUT 3 5 1.600000E-12
DOP 19 25 MDTH 400E-12
VOP 4 25 2.381336E+00
DON 24 19 MDTH 400E-12
VON 24 5 9.19E-01
.ENDS
**********
*SRC=TS27M4S;TS27M4S;Opamps;SGS;
*SYM=SGSOPAMP
.SUBCKT TS27M4S 1 3 2 4 5 
.MODEL MDTH D IS=1E-8 KF=7.405288E-15 CJO=10F
*INPUT STAGE
CIP 2 5 1.000000E-12
CIN 1 5 1.000000E-12
EIP 10 5 2 5 1
EIN 16 5 1 5 1
RIP 10 11 5.200000E+01
RIN 15 16 5.200000E+01
RIS 11 15 1.337376E+02
DIP 11 12 MDTH 400E-12
DIN 15 14 MDTH 400E-12
VOFP 12 13 DC 0.000000E+00
VOFN 13 14 DC 0
IPOL 13 5 5.000000E-06
CPS 11 15 7.175351E-10
DINN 17 13 MDTH 400E-12
VIN 17 5 -0.5000000e+00
DINR 15 18 MDTH 400E-12
VIP 4 18 1.600000E+00
FCP 4 5 VOFP 2.900000E+01
FCN 5 4 VOFN 2.900000E+01
* AMPLIFYING STATE
FIP 5 19 VOFP 8.400000E+02
FIN 5 19 VOFN 8.400000E+02
RG1 19 5 2.212321E+06
RG2 19 4 2.212321E+06
CC 19 29 7.000000E-09
HZTP 30 29 VOFP 9.4E+03
HZTN 5 30 VOFN 9.4E+03
DOPM 19 22 MDTH 400E-12
DONM 21 19 MDTH 400E-12
HOPM 22 28 VOUT 2500
VIPM 28 4 150
HONM 21 27 VOUT 3750
VINM 5 27 150
EOUT 26 23 19 5 1
VOUT 23 5 0
ROUT 26 3 100
COUT 3 5 1.600000E-12
DOP 19 25 MDTH 400E-12
VOP 4 25 1.923208E+00
DON 24 19 MDTH 400E-12
VON 24 5 8.742083E-01
.ENDS
**********
*SRC=TS339S;TS339S;Comparators;SGS;CMOS
*SYM=SGSOPAMP
.SUBCKT TS339S 1 3 2 4 5  
.MODEL MDTH D IS=1E-11 KF=1.050321E-32 CJO=10F
*INPUT STAGE
CIP 2 5 1.000000E-12
CIN 1 5 1.000000E-12
EIP 102 0 2 0 1
VIO 10 102 189U
EIN 16 0 1 0 1
RIP 10 11 6.500000E+01
RIN 15 16 6.500000E+01
RIS 11 15 1.939046E+02
DIP 11 12 MDTH 400E-12
DIN 15 14 MDTH 400E-12
VOFP 12 13 DC 0.000000E+00
VOFN 13 14 DC 0
IPOL 13 0 100E-06
CPS 11 15 8.5E-09
DINN 17 13 MDTH 400E-12
VIN 17 5 0.000000e+00
DINR 15 18 MDTH 400E-12
VIP 4 18 1.200000E+00
FCP 4 5 VOFP 0.00
FCN 5 4 VOFN 0.00
FIBP 2 0 VOFN 2.000000E-08
FIBN 0 1 VOFP 2.000000E-08
* AMPLIFYING STATE
RG1 5 19 2.8E+05
RG2 4 19 2.8E+05
DOP 19 25 MDTH 400E-12
VOP 4 25 1.097
DON 24 19 MDTH 400E-12
VON 24 5 1.097
FIP 0 19 VOFP -104
FIN 0 19 VOFN -104
EOUT 26 5 19 5 1
.MODEL NMOD NPN(IS=1.1E-09 BF=10000)
RBOUT 27 26 800K
QOUT 103 27 28 28 NMOD
RCEOUT 28 103 5.5E+09
REOUT 28 5 20 
RSOUT 3 0 1E+12
VNUL 3 103 0
DSTOP 32 103 MDTH 400E-12
HSTOP 32 33 VNUL 120
VSTOP 33 5 -1.24
.ENDS
**********
*SRC=TS372S;TS372S;Comparators;SGS;CMOS
*SYM=SGSOPAMP
.SUBCKT TS372S 1 3 2 4 5  
.MODEL MDTH D IS=1E-11 KF=1.050321E-32 CJO=10F
*INPUT STAGE
CIP 2 5 1.000000E-12
CIN 1 5 1.000000E-12
EIP 102 0 2 0 1
VIO 10 102 146.5U
EIN 16 0 1 0 1
RIP 10 11 6.500000E+01
RIN 15 16 6.500000E+01
RIS 11 15 1.939046E+02
DIP 11 12 MDTH 400E-12
DIN 15 14 MDTH 400E-12
VOFP 12 13 DC 0.000000E+00
VOFN 13 14 DC 0
IPOL 13 0 100E-06
CPS 11 15 2.7E-09
DINN 17 13 MDTH 400E-12
VIN 17 5 0.000000e+00
DINR 15 18 MDTH 400E-12
VIP 4 18 2.000000E+00
FCP 4 5 VOFP 1.300
FCN 5 4 VOFN 1.300
FIBP 2 0 VOFN 2.000000E-08
FIBN 0 1 VOFP 2.000000E-08
* AMPLIFYING STATE
RG1 5 19 2.8E+05
RG2 4 19 2.8E+05
DOP 19 25 MDTH 400E-12
VOP 4 25 1.097
DON 24 19 MDTH 400E-12
VON 24 5 1.097
FIP 0 19 VOFP -104
FIN 0 19 VOFN -104
EOUT 26 5 19 5 1
.MODEL NMOD NPN(IS=1.1E-09 BF=10500)
RBOUT 27 26 800K
QOUT 103 27 28 28 NMOD
VEOUT 28 5 0V
RSOUT 3 0 1E+12
VNUL 3 103 0
DSTOP 32 103 MDTH 400E-12
HSTOP 32 33 VNUL 35
VSTOP 33 5 1
.ENDS
**********
*SRC=TS393S;TS393S;Comparators;SGS;CMOS
*SYM=SGSOPAMP
.SUBCKT TS393S 1 3 2 4 5  
.MODEL MDTH D IS=1E-11 KF=1.050321E-32 CJO=10F
*INPUT STAGE
CIP 2 5 1.000000E-12
CIN 1 5 1.000000E-12
EIP 102 0 2 0 1
VIO 10 102 189U
EIN 16 0 1 0 1
RIP 10 11 6.500000E+01
RIN 15 16 6.500000E+01
RIS 11 15 1.939046E+02
DIP 11 12 MDTH 400E-12
DIN 15 14 MDTH 400E-12
VOFP 12 13 DC 0.000000E+00
VOFN 13 14 DC 0
IPOL 13 0 100E-06
CPS 11 15 8.5E-09
DINN 17 13 MDTH 400E-12
VIN 17 5 0.000000e+00
DINR 15 18 MDTH 400E-12
VIP 4 18 1.200000E+00
FCP 4 5 VOFP 0.00
FCN 5 4 VOFN 0.00
FIBP 2 0 VOFN 2.000000E-08
FIBN 0 1 VOFP 2.000000E-08
* AMPLIFYING STATE
RG1 5 19 2.8E+05
RG2 4 19 2.8E+05
DOP 19 25 MDTH 400E-12
VOP 4 25 1.097
DON 24 19 MDTH 400E-12
VON 24 5 1.097
FIP 0 19 VOFP -104
FIN 0 19 VOFN -104
EOUT 26 5 19 5 1
.MODEL NMOD NPN(IS=1.1E-09 BF=10000)
RBOUT 27 26 800K
QOUT 103 27 28 28 NMOD
RCEOUT 28 103 5.5E+09
REOUT 28 5 20 
RSOUT 3 0 1E+12
VNUL 3 103 0
DSTOP 32 103 MDTH 400E-12
HSTOP 32 33 VNUL 120
VSTOP 33 5 -1.24
.ENDS
**********
*SRC=TS912S;TS912S;Opamps;SGS;
*SYM=SGSOPAMP
.SUBCKT TS912S 1 3 2 4 5 
.MODEL MDTH D IS=1E-8 KF=6.563355E-14 CJO=10F
*INPUT STAGE
CIP 2 5 1.500000E-12
CIN 1 5 1.500000E-12
EIP 10 5 2 5 1
EIN 16 5 1 5 1
RIP 10 11 6.500000E+00
RIN 15 16 6.500000E+00
RIS 11 15 7.655100E+00
DIP 11 12 MDTH 400E-12
DIN 15 14 MDTH 400E-12
VOFP 12 13 DC 0.000000E+00
VOFN 13 14 DC 0
IPOL 13 5 4.0000000E-05
CPS 11 15 3.82E-08
DINN 17 13 MDTH 400E-12
VIN 17 5 -0.5000000e+00
DINR 15 18 MDTH 400E-12
VIP 4 18 -0.5000000E+00
FCP 4 5 VOFP 7.750000E+00
FCN 5 4 VOFN 7.750000E+00
* AMPLIFYING STATE
FIP 5 19 VOFP 5.500000E+02
FIN 5 19 VOFN 5.500000E+02
RG1 19 5 5.087344E+05
RG2 19 4 5.087344E+05
CC 19 29 2.200000E-08
HZTP 30 29 VOFP 12.33E+02
HZTN 5 30 VOFN 12.33E+02
DOPM 19 22 MDTH 400E-12
DONM 21 19 MDTH 400E-12
HOPM 22 28 VOUT 3135
VIPM 28 4 150
HONM 21 27 VOUT 3135
VINM 5 27 150
EOUT 26 23 19 5 1
VOUT 23 5 0
ROUT 26 3 65
COUT 3 5 1.000000E-12
DOP 19 68 MDTH 400E-12
VOP 4 25 1.924
HSCP 68 25 VSCP1 1E8
DON 69 19 MDTH 400E-12
VON 24 5 2.4419107
HSCN 24 69 VSCN1 1.5E8
VSCTHP 60 61 0.1375
DSCP1 61 63 MDTH 400E-12
VSCP1 63 64 0
ISCP 64 0 1.000000E-8
DSCP2 0 64 MDTH 400E-12
DSCN2 0 74 MDTH 400E-12
ISCN 74 0 1.000000E-8
VSCN1 73 74 0
DSCN1 71 73 MDTH 400E-12
VSCTHN 71 70 -0.75
ESCP 60 0 2 1 500
ESCN 70 0 2 1 -2000
.ENDS
********
*SRC=TS3702S;TS3702S;Comparators;SGS;CMOS
*SYM=SGSOPAMP
.SUBCKT TS3702S 1 3 2 4 5  
.MODEL MDTH D IS=1E-11 KF=1.050321E-32 CJO=10F
*INPUT STAGE
CIP 2 5 1.000000E-12
CIN 1 5 1.000000E-12
EIP 10 0 2 0 1
EIN 16 0 1 0 1
RIP 10 11 6.500000E+01
RIN 15 16 6.500000E+01
RIS 11 15 1.939046E+02
DIP 11 12 MDTH 400E-12
DIN 15 14 MDTH 400E-12
VOFP 12 13 DC 0.000000E+00
VOFN 13 14 DC 0
IPOL 13 0 100E-06
CPS 11 15 8.16E-09
DINN 17 13 MDTH 400E-12
VIN 17 5 0.000000e+00
DINR 15 18 MDTH 400E-12
VIP 4 18 1.200000E+00
FCP 4 5 VOFP 0.00
FCN 5 4 VOFN 0.00
FIBP 2 0 VOFN 2.000000E-08
FIBN 0 1 VOFP 2.000000E-08
* AMPLIFYING STATE
RG1 5 19 2.8E+05
RG2 4 19 2.8E+05
DOP 19 25 MDTH 400E-12
VOP 4 25 1.097
DON 24 19 MDTH 400E-12
VON 24 5 1.097
FIP 0 19 VOFP -104
FIN 0 19 VOFN -104
EOUT 26 5 19 5 1
ROUT 26 3 62.5
.ENDS
**********
*SRC=TSH150S;TSH150S;Opamps;SGS;
*SYM=SGSOPAMP
.SUBCKT TSH150S 1 3 2 4 5  
.MODEL MDTH D IS=1E-8 KF=1.568191E-15 CJO=10F
*INPUT STAGE
CIP 2 5 1.000000E-12
CIN 1 5 1.000000E-12
EIP 10 5 2 5 1
EIN 16 5 1 5 1
RIP 10 11 1.040000E+02
RIN 15 16 1.040000E+02
RIS 11 15 3.264539E+02
DIP 11 12 MDTH 400E-12
DIN 15 14 MDTH 400E-12
VOFP 12 13 DC -9.162265E-05
VOFN 13 14 DC 0
IPOL 13 5 1.000000E-03
CPS 11 15 5.757255E-12
DINN 17 13 MDTH 400E-12
VIN 17 5 1.500000e+00
DINR 15 18 MDTH 400E-12
VIP 4 18 0.500000E+00
FCP 4 5 VOFP 2.200000E+01
FCN 5 4 VOFN 2.200000E+01
FIBP 2 5 VOFN 1.000000E-02
FIBN 5 1 VOFP 1.000000E-02
* AMPLIFYING STATE
FIP 5 19 VOFP 4.370000E+02
FIN 5 19 VOFN 4.370000E+02
RG1 19 5 1.124121E+03
RG2 19 4 1.124121E+03
CC 19 29 2.200000E-09
HZTP 30 29 VOFP 5.574976E+01
HZTN 5 30 VOFN 5.574976E+01
DOPM 19 22 MDTH 400E-12
DONM 21 19 MDTH 400E-12
HOPM 22 28 VOUT 5.000000E+02
VIPM 28 4 5.000000E+01
HONM 21 27 VOUT 5.000000E+02
VINM 5 27 5.000000E+01
EOUT 26 23 19 5 1
VOUT 23 5 0
ROUT 26 3 2.180423E+01
COUT 3 5 1.000000E-12
DOP 19 25 MDTH 400E-12
VOP 4 25 1.511965E+00
DON 24 19 MDTH 400E-12
VON 24 5 1.511965E+00
.ENDS
**********
*SRC=TSH151S;TSH151S;Opamps;SGS;
*SYM=SGSOPAMP
.SUBCKT TSH151S 1 3 2 4 5  
.MODEL MDTH D IS=1E-8 KF=3.322525E-14 CJO=10F
*INPUT STAGE
RESD1 2 202 150
RESD2 1 201 150
CIP 202 5 10.000000E-12
CIN 201 5 10.000000E-12
EIP 10 5 202 5 1
EIN 16 5 201 5 1
RIP 10 11 2.600000E-01
RIN 15 16 2.600000E-01
RIS 11 15 1.683423E-01
DIP 11 12 MDTH 400E-12
DIN 15 14 MDTH 400E-12
VOFP 12 13 DC 0.000000E+00
VOFN 13 14 DC 0
IPOL 13 5 1.000000E-03
CPS 11 15 8E-09
DINN 17 13 MDTH 400E-12
VIN 17 5 1.500000e+00
DINR 15 18 MDTH 400E-12
VIP 4 18 5.000000E-01
FCP 4 5 VOFP 2.200000E+01
FCN 5 4 VOFN 2.200000E+01
* AMPLIFYING STATE
FIP 5 19 VOFP 3.800000E+02
FIN 5 19 VOFN 3.800000E+02
RG1 19 5 1.455096E+03
RG2 19 4 1.455096E+03
CC 19 29 2.000000E-09
HZTP 30 29 VOFP 100
HZTN 5 30 VOFN 100
DOPM 19 22 MDTH 400E-12
DONM 21 19 MDTH 400E-12
HOPM 22 28 VOUT 5.000000E+02
VIPM 28 4 5.000000E+01
HONM 21 27 VOUT 5.000000E+02
VINM 5 27 5.000000E+01
EOUT 26 23 19 5 1
VOUT 23 5 0
ROUT 26 3 9.978126E+00
COUT 3 5 1.000000E-13
DOP 19 25 MDTH 400E-12
VOP 4 25 1.946965E+00
DON 24 19 MDTH 400E-12
VON 24 5 1.946965E+00
.ENDS
**********
*SRC=UA741S;UA741S;Opamps;SGS;
*SYM=SGSOPAMP
.SUBCKT UA741S 1 3 2 4 5  
.MODEL MDTH D IS=1E-8 KF=8.68230E-16 CJO=10F
*INPUT STAGE
CIP 2 5 1.000000E-12
CIN 1 5 1.000000E-12
EIP 10 5 2 5 1
EIN 16 5 1 5 1
RIP 10 11 1.625000E+01
RIN 15 16 1.625000E+01
RIS 11 15 6.310822E+01
DIP 11 12 MDTH 400E-12
DIN 15 14 MDTH 400E-12
VOFP 12 13 DC 0
VOFN 13 14 DC 0
IPOL 13 5 1.600000E-05
CPS 11 15 8.700201E-10
DINN 17 13 MDTH 400E-12
VIN 17 5 3.000000e+00
DINR 15 18 MDTH 400E-12
VIP 4 18 3.000000E+00
FCP 4 5 VOFP 1.052500E+02
FCN 5 4 VOFN 1.052500E+02
FIBP 2 5 VOFN 1.250000E-03
FIBN 5 1 VOFP 1.250000E-03
* AMPLIFYING STATE
FIP 5 19 VOFP 3.750000E+02
FIN 5 19 VOFN 3.750000E+02
RG1 19 5 5.256811E+06
RG2 19 4 5.256811E+06
CC 19 29 1.200000E-08
HZTP 30 29 VOFP 5.813295E+02
HZTN 5 30 VOFN 5.813295E+02
DOPM 19 22 MDTH 400E-12
DONM 21 19 MDTH 400E-12
HOPM 22 28 VOUT 4.400000E+03
VIPM 28 4 1.100000E+02
HONM 21 27 VOUT 4.400000E+03
VINM 5 27 1.100000E+02
EOUT 26 23 19 5 1
VOUT 23 5 0
ROUT 26 3 90
COUT 3 5 1.000000E-12
DOP 19 25 MDTH 400E-12
VOP 4 25 2.25
DON 24 19 MDTH 400E-12
VON 24 5 2.25
.ENDS
**********
*SRC=UA748S;UA748S;Opamps;SGS;
*SYM=SGSOPAMP
.SUBCKT UA748S 1 3 2 4 5 
.MODEL MDTH D IS=1E-8 KF=1.025862E-15 CJO=10F
*INPUT STAGE
CIP 2 5 1.000000E-12
CIN 1 5 1.000000E-12
EIP 10 5 2 5 1
EIN 16 5 1 5 1
RIP 10 11 1.625000E+01
RIN 15 16 1.625000E+01
RIS 11 15 7.476714E+01
DIP 11 12 MDTH 400E-12
DIN 15 14 MDTH 400E-12
VOFP 12 13 DC 0.000000E+00
VOFN 13 14 DC 0
IPOL 13 5 1.600000E-05
CPS 11 15 2.5E-09
DINN 17 13 MDTH 400E-12
VIN 17 5 0.000000e+00
DINR 15 18 MDTH 400E-12
VIP 4 18 0.000000E+00
FCP 4 5 VOFP 1.115000E+02
FCN 5 4 VOFN 1.115000E+02
FIBP 2 5 VOFP 1.875000E-04
FIBN 5 1 VOFN 1.875000E-04
* AMPLIFYING STAGE
FIP 5 19 VOFP 9.375000E+02
FIN 5 19 VOFN 9.375000E+02
RG1 19 5 9.981802E+05
RG2 19 4 9.981802E+05
CC 19 29 3.000000E-08
HZTP 30 29 VOFP 5.535733E+02
HZTN 5 30 VOFN 5.535733E+02
DOPM 19 22 MDTH 400E-12
DONM 21 19 MDTH 400E-12
HOPM 22 28 VOUT 5.000000E+03
VIPM 28 4 1.500000E+02
HONM 21 27 VOUT 5.000000E+03
VINM 5 27 1.500000E+02
EOUT 26 23 19 5 1
VOUT 23 5 0
ROUT 26 3 200
COUT 3 5 1.000000E-12
DOP 19 25 MDTH 400E-12
VOP 4 25 1.480450E+00
DON 24 19 MDTH 400E-12
VON 24 5 1.480450E+00
.ENDS
**********
*SRC=UA776S;UA776S;Opamps;SGS;
*SYM=SGSOPAMP
.SUBCKT UA776S 1 3 2 4 5 
.MODEL MDTH D IS=1E-8 KF=2.120269E-16 CJO=10F
*INPUT STAGE
CIP 2 5 2.000000E-12
CIN 1 5 2.000000E-12
EIP 10 5 2 5 1
EIN 16 5 1 5 1
RIP 10 11 3.466667E+03
RIN 15 16 3.466667E+03
RIS 11 15 6.156567E+03
DIP 11 12 MDTH 400E-12
DIN 15 14 MDTH 400E-12
VOFP 12 13 DC 0.000000E+00
VOFN 13 14 DC 0
IPOL 13 5 1.500000E-05
CPS 11 15 3.626677E-11
DINN 17 13 MDTH 400E-12
VIN 17 5 5.000000e+00
DINR 15 18 MDTH 400E-12
VIP 4 18 5.000000E+00
FCP 4 5 VOFP 9.666667E+00
FCN 5 4 VOFN 9.666667E+00
FIBP 2 5 VOFP 2.000000E-03
FIBN 5 1 VOFN 2.000000E-03
* AMPLIFYING STAGE
FIP 5 19 VOFP 8.000000E+02
FIN 5 19 VOFN 8.000000E+02
RG1 19 5 1.083589E+07
RG2 19 4 1.083589E+07
CC 19 29 1.500000E-08
HZTP 30 29 VOFP 1.282181E+03
HZTN 5 30 VOFN 1.282181E+03
DOPM 19 22 MDTH 400E-12
DONM 21 19 MDTH 400E-12
HOPM 22 28 VOUT 1.250000E+04
VIPM 28 4 1.500000E+02
HONM 21 27 VOUT 1.250000E+04
VINM 5 27 1.500000E+02
EOUT 26 23 19 5 1
VOUT 23 5 0
ROUT 26 3 3E+02
COUT 3 5 1.000000E-12
DOP 19 25 MDTH 400E-12
VOP 4 25 2.752772E+00
DON 24 19 MDTH 400E-12
VON 24 5 2.752772E+00
.ENDS
**********
* Note: Would not run in transient analysis; reason unknown
* Problem with node 19??
.SUBCKT TS902S 1 3 2 4 5 6
*              - O + V+V-Standby
.MODEL MDTH D IS=1E-8 KF=6.563355E-14 CJO=10F
*INPUT STAGE
CIP 2 5 1.500000E-12
CIN 1 5 1.500000E-12
EIP 10 0 2 0 1
EIN 16 0 1 0 1
RIP 10 11 6.500000E+00
RIN 15 16 6.500000E+00
RIS 11 15 7.655100E+00
DIP 11 12 MDTH 400E-12
DIN 15 14 MDTH 400E-12
VOFP 12 13 DC 0.000000E+00
VOFN 13 14 DC 0
FPOL 13 0 VSTB 1
CPS 11 15 3.82E-08
DINN 17 13 MDTH 400E-12
VIN 17 5 -0.5000000e+00
DINR 15 18 MDTH 400E-12
VIP 4 18 -0.5000000E+00
FCP 4 5 VOFP 8.6E+00
FCN 5 4 VOFN 8.6E+00
ISTB0 5 4 900NA
* AMPLIFYING STATE
FIP 0 19 VOFP 5.500000E+02
FIN 0 19 VOFN 5.500000E+02
RG1 19 120 5.087344E+05
GCOM1 120 5 POLY(1) 110 109 6.25E+11
RG2 121 19 5.087344E+05
GCOM2 121 4 POLY(1) 110 109 6.25E+11
CC 19 29 2.200000E-08