************
* ===============================================
* IsSpice4-Simulationsmodell für S+M ZnO-Varistoren
* ===============================================
*
* (C)-Diplomarbeit Peter Kronberger 1994/95
*
* Institut für Hochspannungstechnik der Technischen Universität Graz
*
* Siemens Matsushita Components OHG. Deutschlandsberg
*
* "SIOV.LIB" Version 4.0  -  1. Jänner 1995
**********
*SRC=SIMENSVAR;SIMENSVAR;Varistors;Siemens;Generic Version
*SYM=MOV
.SUBCKT SIMENSVAR 1 2 {T=1 C=1pF L=1nH B1=10 B2=1 B3=0 B4=0}
X1 1 2 SIOV {T=T C=C L=L B1=B1 B2=B2 B3=B3 B4=B4}
.ENDS
*INCLUDE SIEMMOV.LIB
***********
*SRC=B32K130;B32K130;Varistors;Siemens;
*SYM=MOV
.SUBCKT B32K130 1 2 {TOL=0}
X1 1 2 SIOV {T=1+TOL/100 C=4400pF L=20.0nH B1=2.3993743 B2=0.0244237 B3=-0.0006745 B4=0.0035122} 
.ENDS
*INCLUDE SIEMMOV.LIB
**********************
*SRC=B32K150;B32K150;Varistors;Siemens;
*SYM=MOV
.SUBCKT B32K150 1 2 {TOL=0}
X1 1 2 SIOV {T=1+TOL/100 C=3700pF L=20.0nH B1=2.4639255 B2=0.0231608 B3=-0.0006838 B4=0.0037158} 
.ENDS
*INCLUDE SIEMMOV.LIB
***********
*SRC=B32K230;B32K230;Varistors;Siemens;
*SYM=MOV
.SUBCKT B32K230 1 2 {TOL=0}
X1 1 2 SIOV {T=1+TOL/100 C=2500pF L=20.0nH B1=2.6396514 B2=0.0250175 B3=-0.0003852 B4=0.0035866} 
.ENDS
*INCLUDE SIEMMOV.LIB
***********
*SRC=B32K250;B32K250;Varistors;Siemens;
*SYM=MOV
.SUBCKT B32K250 1 2 {TOL=0}
X1 1 2 SIOV {T=1+TOL/100 C=2200pF L=20.0nH B1=2.6755721 B2=0.0254902 B3=-0.0003801 B4=0.0036033} 
.ENDS
*INCLUDE SIEMMOV.LIB
***********
*SRC=B32K275;B32K275;Varistors;Siemens;
*SYM=MOV
.SUBCKT B32K275 1 2 {TOL=0}
X1 1 2 SIOV {T=1+TOL/100 C=2000pF L=20.0nH B1=2.7158393 B2=0.0245312 B3=-0.0003902 B4=0.0038091} 
.ENDS
*INCLUDE SIEMMOV.LIB
***********
*SRC=B32K320;B32K320;Varistors;Siemens;
*SYM=MOV
.SUBCKT B32K320 1 2 {TOL=0}
X1 1 2 SIOV {T=1+TOL/100 C=1700pF L=20.0nH B1=2.7865339 B2=0.0250465 B3=-0.0002282 B4=0.0039129} 
.ENDS
*INCLUDE SIEMMOV.LIB
***********
*SRC=B32K385;B32K385;Varistors;Siemens;
*SYM=MOV
.SUBCKT B32K385 1 2 {TOL=0}
X1 1 2 SIOV {T=1+TOL/100 C=1400pF L=20.0nH B1=2.8724282 B2=0.0252969 B3=-0.0002145 B4=0.0039247} 
.ENDS
*INCLUDE SIEMMOV.LIB
***********
*SRC=B32K420;B32K420;Varistors;Siemens;
*SYM=MOV
.SUBCKT B32K420 1 2 {TOL=0}
X1 1 2 SIOV {T=1+TOL/100 C=1300pF L=20.0nH B1=2.9115379 B2=0.0257571 B3=-0.0001455 B4=0.0037765} 
.ENDS
*INCLUDE SIEMMOV.LIB
***********
*SRC=B32K440;B32K440;Varistors;Siemens;
*SYM=MOV
.SUBCKT B32K440 1 2 {TOL=0}
X1 1 2 SIOV {T=1+TOL/100 C=1250pF L=20.0nH B1=2.9382162 B2=0.0274354 B3=-0.0001529 B4=0.0035850} 
.ENDS
*INCLUDE SIEMMOV.LIB
***********
*SRC=B32K460;B32K460;Varistors;Siemens;
*SYM=MOV
.SUBCKT B32K460 1 2 {TOL=0}
X1 1 2 SIOV {T=1+TOL/100 C=1200pF L=20.0nH B1=2.9552013 B2=0.0258057 B3=-0.0001903 B4=0.0037117} 
.ENDS
*INCLUDE SIEMMOV.LIB
***********
*SRC=B32K550;B32K550;Varistors;Siemens;
*SYM=MOV
.SUBCKT B32K550 1 2 {TOL=0}
X1 1 2 SIOV {T=1+TOL/100 C=1000pF L=20.0nH B1=3.0383931 B2=0.0258834 B3=-0.0001100 B4=0.0037325} 
.ENDS
*INCLUDE SIEMMOV.LIB
***********
*SRC=B32K680;B32K680;Varistors;Siemens;
*SYM=MOV
.SUBCKT B32K680 1 2 {TOL=0}
X1 1 2 SIOV {T=1+TOL/100 C=830pF L=20.0nH B1=3.1261533 B2=0.0274590 B3=-0.0001446 B4=0.0036626} 
.ENDS
*INCLUDE SIEMMOV.LIB
***********
*SRC=B32K750;B32K750;Varistors;Siemens;
*SYM=MOV
.SUBCKT B32K750 1 2 {TOL=0}
X1 1 2 SIOV {T=1+TOL/100 C=800pF L=20.0nH B1=3.1595450 B2=0.0259659 B3=-0.0001215 B4=0.0040425} 
.ENDS
*INCLUDE SIEMMOV.LIB
***********
*SRC=B40K75;B40K75;Varistors;Siemens;
*SYM=MOV
.SUBCKT B40K75 1 2 {TOL=0}
X1 1 2 SIOV {T=1+TOL/100 C=11000pF L=19.0nH B1=2.1555319 B2=0.0240598 B3=-0.0001389 B4=0.0040075} 
.ENDS
*INCLUDE SIEMMOV.LIB
***********
*SRC=B40K130;B40K130;Varistors;Siemens;
*SYM=MOV
.SUBCKT B40K130 1 2 {TOL=0}
X1 1 2 SIOV {T=1+TOL/100 C=5600pF L=19.0nH B1=2.3992774 B2=0.0241839 B3=-0.0006786 B4=0.0027650} 
.ENDS
*INCLUDE SIEMMOV.LIB
***********
*SRC=B40K150;B40K150;Varistors;Siemens;
*SYM=MOV
.SUBCKT B40K150 1 2 {TOL=0}
X1 1 2 SIOV {T=1+TOL/100 C=4800pF L=19.0nH B1=2.4620502 B2=0.0222331 B3=-0.0006945 B4=0.0032469} 
.ENDS
***********
*SRC=B40K230;B40K230;Varistors;Siemens;
*SYM=MOV
.SUBCKT B40K230 1 2 {TOL=0}
X1 1 2 SIOV {T=1+TOL/100 C=3200pF L=19.0nH B1=2.6352228 B2=0.0234515 B3=-0.0003990 B4=0.0032916} 
.ENDS
*INCLUDE SIEMMOV.LIB
***********
*SRC=B40K250;B40K250;Varistors;Siemens;
*SYM=MOV
.SUBCKT B40K250 1 2 {TOL=0}
X1 1 2 SIOV {T=1+TOL/100 C=2900pF L=19.0nH B1=2.6729928 B2=0.0244592 B3=-0.0003903 B4=0.0032354} 
.ENDS
*INCLUDE SIEMMOV.LIB
***********
*SRC=B40K275;B40K275;Varistors;Siemens;
*SYM=MOV
.SUBCKT B40K275 1 2 {TOL=0}
X1 1 2 SIOV {T=1+TOL/100 C=2700pF L=19.0nH B1=2.7103342 B2=0.0229461 B3=-0.0004008 B4=0.0036353} 
.ENDS
*INCLUDE SIEMMOV.LIB
***********
*SRC=B40K320;B40K320;Varistors;Siemens;
*SYM=MOV
.SUBCKT B40K320 1 2 {TOL=0}
X1 1 2 SIOV {T=1+TOL/100 C=2300pF L=19.0nH B1=2.7834706 B2=0.0236867 B3=-0.0002420 B4=0.0034706} 
.ENDS
*INCLUDE SIEMMOV.LIB
***********
*SRC=B40K385;B40K385;Varistors;Siemens;
*SYM=MOV
.SUBCKT B40K385 1 2 {TOL=0}
X1 1 2 SIOV {T=1+TOL/100 C=1900pF L=19.0nH B1=2.8696798 B2=0.0243613 B3=-0.0002224 B4=0.0033553} 
.ENDS
*INCLUDE SIEMMOV.LIB
***********
*SRC=B40K420;B40K420;Varistors;Siemens;
*SYM=MOV
.SUBCKT B40K420 1 2 {TOL=0}
X1 1 2 SIOV {T=1+TOL/100 C=1800pF L=19.0nH B1=2.9072617 B2=0.0238985 B3=-0.0001615 B4=0.0034613} 
.ENDS
*INCLUDE SIEMMOV.LIB
***********
*SRC=B40K440;B40K440;Varistors;Siemens;
*SYM=MOV
.SUBCKT B40K440 1 2 {TOL=0}
X1 1 2 SIOV {T=1+TOL/100 C=1700pF L=19.0nH B1=2.9299121 B2=0.0240609 B3=-0.0001834 B4=0.0034573} 
.ENDS
*INCLUDE SIEMMOV.LIB
***********
*SRC=B40K460;B40K460;Varistors;Siemens;
*SYM=MOV
.SUBCKT B40K460 1 2 {TOL=0}
X1 1 2 SIOV {T=1+TOL/100 C=1600pF L=19.0nH B1=2.9513244 B2=0.0241435 B3=-0.0002045 B4=0.0034585} 
.ENDS
*INCLUDE SIEMMOV.LIB
***********
*SRC=B40K550;B40K550;Varistors;Siemens;
*SYM=MOV
.SUBCKT B40K550 1 2 {TOL=0}
X1 1 2 SIOV {T=1+TOL/100 C=1400pF L=19.0nH B1=3.0332455 B2=0.0239408 B3=-0.0001258 B4=0.0035698} 
.ENDS
*INCLUDE SIEMMOV.LIB
***********
*SRC=B40K680;B40K680;Varistors;Siemens;
*SYM=MOV
.SUBCKT B40K680 1 2 {TOL=0}
X1 1 2 SIOV {T=1+TOL/100 C=1100pF L=19.0nH B1=3.1231254 B2=0.0262447 B3=-0.0001553 B4=0.0031740} 
.ENDS
*INCLUDE SIEMMOV.LIB
***********
*SRC=B40K750;B40K750;Varistors;Siemens;
*SYM=MOV
.SUBCKT B40K750 1 2 {TOL=0}
X1 1 2 SIOV {T=1+TOL/100 C=1000pF L=19.0nH B1=3.1570007 B2=0.0250815 B3=-0.0001292 B4=0.0034216} 
.ENDS
*INCLUDE SIEMMOV.LIB
***********
*SRC=B60K75;B60K75;Varistors;Siemens;
*SYM=MOV
.SUBCKT B60K75 1 2 {TOL=0}
X1 1 2 SIOV {T=1+TOL/100 C=26000pF L=27.0nH B1=2.1951927 B2=0.0364385 B3=-0.0004750 B4=0.0024732} 
.ENDS
*INCLUDE SIEMMOV.LIB
***********
*SRC=B60K130;B60K130;Varistors;Siemens;
*SYM=MOV
.SUBCKT B60K130 1 2 {TOL=0}
X1 1 2 SIOV {T=1+TOL/100 C=15000pF L=27.0nH B1=2.3955139 B2=0.0236810 B3=-0.0006273 B4=0.0020813} 
.ENDS
*INCLUDE SIEMMOV.LIB
***********
*SRC=B60K150;B60K150;Varistors;Siemens;
*SYM=MOV
.SUBCKT B60K150 1 2 {TOL=0}
X1 1 2 SIOV {T=1+TOL/100 C=12000pF L=27.0nH B1=2.4568431 B2=0.0232710 B3=-0.0003484 B4=0.0022792} 
.ENDS
*INCLUDE SIEMMOV.LIB
***********
*SRC=B60K230;B60K230;Varistors;Siemens;
*SYM=MOV
.SUBCKT B60K230 1 2 {TOL=0}
X1 1 2 SIOV {T=1+TOL/100 C=7900pF L=27.0nH B1=2.6287698 B2=0.0225094 B3=-0.0002596 B4=0.0029007} 
.ENDS
*INCLUDE SIEMMOV.LIB
***********
*SRC=B60K250;B60K250;Varistors;Siemens;
*SYM=MOV
.SUBCKT B60K250 1 2 {TOL=0}
X1 1 2 SIOV {T=1+TOL/100 C=7100pF L=27.0nH B1=2.6645339 B2=0.0232980 B3=-0.0001918 B4=0.0029384} 
.ENDS
*INCLUDE SIEMMOV.LIB
***********
*SRC=B60K275;B60K275;Varistors;Siemens;
*SYM=MOV
.SUBCKT B60K275 1 2 {TOL=0}
X1 1 2 SIOV {T=1+TOL/100 C=6600pF L=27.0nH B1=2.7130467 B2=0.0201357 B3=-0.0009619 B4=0.0029057} 
.ENDS
*INCLUDE SIEMMOV.LIB
***********
*SRC=B60K320;B60K320;Varistors;Siemens;
*SYM=MOV
.SUBCKT B60K320 1 2 {TOL=0}
X1 1 2 SIOV {T=1+TOL/100 C=5600pF L=27.0nH B1=2.7865675 B2=0.0196155 B3=-0.0010111 B4=0.0029728} 
.ENDS
*INCLUDE SIEMMOV.LIB
***********
*SRC=B60K385;B60K385;Varistors;Siemens;
*SYM=MOV
.SUBCKT B60K385 1 2 {TOL=0}
X1 1 2 SIOV {T=1+TOL/100 C=4600pF L=27.0nH B1=2.8690343 B2=0.0232984 B3=-0.0003167 B4=0.0025237} 
.ENDS
*INCLUDE SIEMMOV.LIB
***********
*SRC=B60K420;B60K420;Varistors;Siemens;
*SYM=MOV
.SUBCKT B60K420 1 2 {TOL=0}
X1 1 2 SIOV {T=1+TOL/100 C=4300pF L=27.0nH B1=2.9085404 B2=0.0236386 B3=-0.0002836 B4=0.0025146} 
.ENDS
*INCLUDE SIEMMOV.LIB
***********
*SRC=B60K440;B60K440;Varistors;Siemens;
*SYM=MOV
.SUBCKT B60K440 1 2 {TOL=0}
X1 1 2 SIOV {T=1+TOL/100 C=4100pF L=27.0nH B1=2.9289246 B2=0.0236727 B3=-0.0001768 B4=0.0025400} 
.ENDS
*INCLUDE SIEMMOV.LIB
***********
*SRC=B60K460;B60K460;Varistors;Siemens;
*SYM=MOV
.SUBCKT B60K460 1 2 {TOL=0}
X1 1 2 SIOV {T=1+TOL/100 C=3900pF L=27.0nH B1=2.9498587 B2=0.0245339 B3=-0.0000610 B4=0.0025181} 
.ENDS
*INCLUDE SIEMMOV.LIB
***********
*SRC=B60K550;B60K550;Varistors;Siemens;
*SYM=MOV
.SUBCKT B60K550 1 2 {TOL=0}
X1 1 2 SIOV {T=1+TOL/100 C=3300pF L=27.0nH B1=3.0353067 B2=0.0247910 B3=-0.0001026 B4=0.0022789} 
.ENDS
*INCLUDE SIEMMOV.LIB
***********
*SRC=B60K680;B60K680;Varistors;Siemens;
*SYM=MOV
.SUBCKT B60K680 1 2 {TOL=0}
X1 1 2 SIOV {T=1+TOL/100 C=2600pF L=27.0nH B1=3.1178709 B2=0.0252185 B3=-0.0000311 B4=0.0021453} 
.ENDS
*INCLUDE SIEMMOV.LIB
***********
*SRC=B60K750;B60K750;Varistors;Siemens;
*SYM=MOV
.SUBCKT B60K750 1 2 {TOL=0}
X1 1 2 SIOV {T=1+TOL/100 C=2400pF L=27.0nH B1=3.1567406 B2=0.0258761 B3=-0.0000049 B4=0.0022396} 
.ENDS
*INCLUDE SIEMMOV.LIB
***********
*SRC=B60K1000;B60K1000;Varistors;Siemens;
*SYM=MOV
.SUBCKT B60K1000 1 2 {TOL=0}
X1 1 2 SIOV {T=1+TOL/100 C=1600pF L=27.0nH B1=3.3297856 B2=0.0241006 B3=0.0000002 B4=0.0027927} 
.ENDS
*INCLUDE SIEMMOV.LIB
***********
*SRC=B80K130;B80K130;Varistors;Siemens;
*SYM=MOV
.SUBCKT B80K130 1 2 {TOL=0}
X1 1 2 SIOV {T=1+TOL/100 C=28000pF L=30.0nH B1=2.3771818 B2=0.0147012 B3=-0.0012351 B4=0.0031523} 
.ENDS
*INCLUDE SIEMMOV.LIB
***********
*SRC=B80K150;B80K150;Varistors;Siemens;
*SYM=MOV
.SUBCKT B80K150 1 2 {TOL=0}
X1 1 2 SIOV {T=1+TOL/100 C=23000pF L=30.0nH B1=2.4460708 B2=0.0148317 B3=-0.0012291 B4=0.0031279} 
.ENDS
*INCLUDE SIEMMOV.LIB
***********
*SRC=B80K230;B80K230;Varistors;Siemens;
*SYM=MOV
.SUBCKT B80K230 1 2 {TOL=0}
X1 1 2 SIOV {T=1+TOL/100 C=16000pF L=30.0nH B1=2.6242522 B2=0.0154987 B3=-0.0012291 B4=0.0030202} 
.ENDS
*INCLUDE SIEMMOV.LIB
***********
*SRC=B80K250;B80K250;Varistors;Siemens;
*SYM=MOV
.SUBCKT B80K250 1 2 {TOL=0}
X1 1 2 SIOV {T=1+TOL/100 C=14000pF L=30.0nH B1=2.6572007 B2=0.0148342 B3=-0.0012346 B4=0.0031103} 
.ENDS
*INCLUDE SIEMMOV.LIB
***********
*SRC=B80K275;B80K275;Varistors;Siemens;
*SYM=MOV
.SUBCKT B80K275 1 2 {TOL=0}
X1 1 2 SIOV {T=1+TOL/100 C=13000pF L=30.0nH B1=2.6999836 B2=0.0151979 B3=-0.0012307 B4=0.0030450} 
.ENDS
*INCLUDE SIEMMOV.LIB
***********
*SRC=B80K320;B80K320;Varistors;Siemens;
*SYM=MOV
.SUBCKT B80K320 1 2 {TOL=0}
X1 1 2 SIOV {T=1+TOL/100 C=11000pF L=30.0nH B1=2.7737848 B2=0.0150159 B3=-0.0012341 B4=0.0030911} 
.ENDS
*INCLUDE SIEMMOV.LIB
***********
*SRC=B80K385;B80K385;Varistors;Siemens;
*SYM=MOV
.SUBCKT B80K385 1 2 {TOL=0}
X1 1 2 SIOV {T=1+TOL/100 C=9000pF L=30.0nH B1=2.8584161 B2=0.0150168 B3=-0.0012348 B4=0.0031019} 
.ENDS
*INCLUDE SIEMMOV.LIB
***********
*SRC=B80K420;B80K420;Varistors;Siemens;
*SYM=MOV
.SUBCKT B80K420 1 2 {TOL=0}
X1 1 2 SIOV {T=1+TOL/100 C=8500pF L=30.0nH B1=2.8985800 B2=0.0150932 B3=-0.0012295 B4=0.0030967} 
.ENDS
*INCLUDE SIEMMOV.LIB
***********
*SRC=B80K440;B80K440;Varistors;Siemens;
*SYM=MOV
.SUBCKT B80K440 1 2 {TOL=0}
X1 1 2 SIOV {T=1+TOL/100 C=8100pF L=30.0nH B1=2.9284686 B2=0.0159312 B3=-0.0013149 B4=0.0030069} 
.ENDS
*INCLUDE SIEMMOV.LIB
***********
*SRC=B80K460;B80K460;Varistors;Siemens;
*SYM=MOV
.SUBCKT B80K460 1 2 {TOL=0}
X1 1 2 SIOV {T=1+TOL/100 C=7700pF L=30.0nH B1=2.9413057 B2=0.0150081 B3=-0.0012364 B4=0.0030953} 
.ENDS
*INCLUDE SIEMMOV.LIB
***********
*SRC=B80K550;B80K550;Varistors;Siemens;
*SYM=MOV
.SUBCKT B80K550 1 2 {TOL=0}
X1 1 2 SIOV {T=1+TOL/100 C=6500pF L=30.0nH B1=3.0251862 B2=0.0150098 B3=-0.0012332 B4=0.0031023} 
.ENDS
*INCLUDE SIEMMOV.LIB
***********
*SRC=B80K680;B80K680;Varistors;Siemens;
*SYM=MOV
.SUBCKT B80K680 1 2 {TOL=0}
X1 1 2 SIOV {T=1+TOL/100 C=5200pF L=30.0nH B1=3.1075401 B2=0.0150413 B3=-0.0012310 B4=0.0031022} 
.ENDS
*INCLUDE SIEMMOV.LIB
***********
*SRC=B80K750;B80K750;Varistors;Siemens;
*SYM=MOV
.SUBCKT B80K750 1 2 {TOL=0}
X1 1 2 SIOV {T=1+TOL/100 C=4800pF L=30.0nH B1=3.1451884 B2=0.0150207 B3=-0.0012320 B4=0.0031061} 
.ENDS
*INCLUDE SIEMMOV.LIB
***********
*SRC=B80K1100;B80K1100;Varistors;Siemens;
*SYM=MOV
.SUBCKT B80K1100 1 2 {TOL=0}
X1 1 2 SIOV {T=1+TOL/100 C=3200pF L=30.0nH B1=3.3216835 B2=0.0150593 B3=-0.0012332 B4=0.0031011} 
.ENDS
*INCLUDE SIEMMOV.LIB
***********
*SRC=CU3225K11G2;CU3225K11G2;Varistors;Siemens;
*SYM=MOV
.SUBCKT CU3225K11G2 1 2 {TOL=0}
X1 1 2 SIOV {T=1+TOL/100 C=1600pF L=2.6nH B1=1.4945960 B2=0.0772656 B3=-0.0003451 B4=0.0210900} 
.ENDS
*INCLUDE SIEMMOV.LIB
***********
*SRC=CU3225K14G2;CU3225K14G2;Varistors;Siemens;
*SYM=MOV
.SUBCKT CU3225K14G2 1 2 {TOL=0}
X1 1 2 SIOV {T=1+TOL/100 C=1300pF L=2.6nH B1=1.5665262 B2=0.0727184 B3=-0.0003255 B4=0.0271668} 
.ENDS
*INCLUDE SIEMMOV.LIB
***********
*SRC=CU3225K14AUTOG2;CU3225K14AUTOG2;Varistors;Siemens;
*SYM=MOV
.SUBCKT CU3225K14AUTOG2 1 2 {TOL=0}
X1 1 2 SIOV {T=1+TOL/100 C=1300pF L=2.6nH B1=1.5665262 B2=0.0727184 B3=-0.0003255 B4=0.0271668} 
.ENDS
*INCLUDE SIEMMOV.LIB
***********
*SRC=CU3225K17G2;CU3225K17G2;Varistors;Siemens;
*SYM=MOV
.SUBCKT CU3225K17G2 1 2 {TOL=0}
X1 1 2 SIOV {T=1+TOL/100 C=1050pF L=2.6nH B1=1.6538121 B2=0.0723807 B3=-0.0003960 B4=0.0300661} 
.ENDS
*INCLUDE SIEMMOV.LIB
***********
*SRC=CU3225K17AUTOG2;CU3225K17AUTOG2;Varistors;Siemens;
*SYM=MOV
.SUBCKT CU3225K17AUTOG2 1 2 {TOL=0}
X1 1 2 SIOV {T=1+TOL/100 C=1050pF L=2.6nH B1=1.6538121 B2=0.0723807 B3=-0.0003960 B4=0.0300661} 
.ENDS
*INCLUDE SIEMMOV.LIB
***********
*SRC=CU3225K20G2;CU3225K20G2;Varistors;Siemens;
*SYM=MOV
.SUBCKT CU3225K20G2 1 2 {TOL=0}
X1 1 2 SIOV {T=1+TOL/100 C=750pF L=2.6nH B1=1.7465565 B2=0.0739956 B3=-0.0003956 B4=0.0274810} 
.ENDS
*INCLUDE SIEMMOV.LIB
***********
*SRC=CU3225K25G2;CU3225K25G2;Varistors;Siemens;
*SYM=MOV
.SUBCKT CU3225K25G2 1 2 {TOL=0}
X1 1 2 SIOV {T=1+TOL/100 C=660pF L=2.6nH B1=1.8200769 B2=0.0746042 B3=-0.0003707 B4=0.0301245} 
.ENDS
*INCLUDE SIEMMOV.LIB
***********
*SRC=CU3225K30G2;CU3225K30G2;Varistors;Siemens;
*SYM=MOV
.SUBCKT CU3225K30G2 1 2 {TOL=0}
X1 1 2 SIOV {T=1+TOL/100 C=580pF L=2.6nH B1=1.8993828 B2=0.0731617 B3=-0.0004495 B4=0.0290800} 
.ENDS
*INCLUDE SIEMMOV.LIB
***********
*SRC=CU3225K30AUTOG2;CU3225K30AUTOG2;Varistors;Siemens;
*SYM=MOV
.SUBCKT CU3225K30AUTOG2 1 2 {TOL=0}
X1 1 2 SIOV {T=1+TOL/100 C=580pF L=2.6nH B1=1.8993828 B2=0.0731617 B3=-0.0004495 B4=0.0290800} 
.ENDS
*INCLUDE SIEMMOV.LIB
***********
*SRC=CU3225K35G2;CU3225K35G2;Varistors;Siemens;
*SYM=MOV
.SUBCKT CU3225K35G2 1 2 {TOL=0}
X1 1 2 SIOV {T=1+TOL/100 C=460pF L=2.6nH B1=1.9752898 B2=0.0737675 B3=-0.0003783 B4=0.0287467} 
.ENDS
*INCLUDE SIEMMOV.LIB
***********
*SRC=CU3225K40G2;CU3225K40G2;Varistors;Siemens;
*SYM=MOV
.SUBCKT CU3225K40G2 1 2 {TOL=0}
X1 1 2 SIOV {T=1+TOL/100 C=400pF L=2.6nH B1=2.0650501 B2=0.0750707 B3=-0.0004119 B4=0.0260654} 
.ENDS
*INCLUDE SIEMMOV.LIB
***********
*SRC=CU3225K50G2;CU3225K50G2;Varistors;Siemens;
*SYM=MOV
.SUBCKT CU3225K50G2 1 2 {TOL=0}
X1 1 2 SIOV {T=1+TOL/100 C=300pF L=2.6nH B1=2.0545580 B2=0.0462711 B3=-0.0003212 B4=0.0109473} 
.ENDS
*INCLUDE SIEMMOV.LIB
***********
*SRC=CU3225K60G2;CU3225K60G2;Varistors;Siemens;
*SYM=MOV
.SUBCKT CU3225K60G2 1 2 {TOL=0}
X1 1 2 SIOV {T=1+TOL/100 C=250pF L=2.6nH B1=2.0545580 B2=0.0462711 B3=-0.0003212 B4=0.0109473} 
.ENDS
*INCLUDE SIEMMOV.LIB
***********
*SRC=CU3225K75G2;CU3225K75G2;Varistors;Siemens;
*SYM=MOV
.SUBCKT CU3225K75G2 1 2 {TOL=0}
X1 1 2 SIOV {T=1+TOL/100 C=210pF L=2.6nH B1=2.2193362 B2=0.0459645 B3=-0.0003208 B4=0.0109868} 
.ENDS
*INCLUDE SIEMMOV.LIB
***********
*SRC=CU3225K95G2;CU3225K95G2;Varistors;Siemens;
*SYM=MOV
.SUBCKT CU3225K95G2 1 2 {TOL=0}
X1 1 2 SIOV {T=1+TOL/100 C=135pF L=2.6nH B1=2.3211482 B2=0.0457676 B3=-0.0003453 B4=0.0100234} 
.ENDS
*INCLUDE SIEMMOV.LIB
***********
*SRC=CU3225K115G2;CU3225K115G2;Varistors;Siemens;
*SYM=MOV
.SUBCKT CU3225K115G2 1 2 {TOL=0}
X1 1 2 SIOV {T=1+TOL/100 C=110pF L=2.6nH B1=2.3856420 B2=0.0413952 B3=-0.0003730 B4=0.0098904} 
.ENDS
*INCLUDE SIEMMOV.LIB
***********
*SRC=CU3225K130G2;CU3225K130G2;Varistors;Siemens;
*SYM=MOV
.SUBCKT CU3225K130G2 1 2 {TOL=0}
X1 1 2 SIOV {T=1+TOL/100 C=100pF L=2.6nH B1=2.4554440 B2=0.0470922 B3=-0.0003308 B4=0.0074814} 
.ENDS
*INCLUDE SIEMMOV.LIB
***********
*SRC=CU3225K140G2;CU3225K140G2;Varistors;Siemens;
*SYM=MOV
.SUBCKT CU3225K140G2 1 2 {TOL=0}
X1 1 2 SIOV {T=1+TOL/100 C=95pF L=2.6nH B1=2.4825574 B2=0.0458308 B3=-0.0003313 B4=0.0076751} 
.ENDS
*INCLUDE SIEMMOV.LIB
***********
*SRC=CU3225K150G2;CU3225K150G2;Varistors;Siemens;
*SYM=MOV
.SUBCKT CU3225K150G2 1 2 {TOL=0}
X1 1 2 SIOV {T=1+TOL/100 C=90pF L=2.6nH B1=2.5212464 B2=0.0459346 B3=-0.0003331 B4=0.0073023} 
.ENDS
*INCLUDE SIEMMOV.LIB
***********
*SRC=CU3225K175G2;CU3225K175G2;Varistors;Siemens;
*SYM=MOV
.SUBCKT CU3225K175G2 1 2 {TOL=0}
X1 1 2 SIOV {T=1+TOL/100 C=75pF L=2.6nH B1=2.5469960 B2=0.0348646 B3=-0.0005015 B4=0.0085813} 
.ENDS
*INCLUDE SIEMMOV.LIB
***********
*SRC=CU3225K230G2;CU3225K230G2;Varistors;Siemens;
*SYM=MOV
.SUBCKT CU3225K230G2 1 2 {TOL=0}
X1 1 2 SIOV {T=1+TOL/100 C=60pF L=2.6nH B1=2.6986925 B2=0.0468290 B3=-0.0003190 B4=0.0069771} 
.ENDS
*INCLUDE SIEMMOV.LIB
***********
*SRC=CU3225K250G2;CU3225K250G2;Varistors;Siemens;
*SYM=MOV
.SUBCKT CU3225K250G2 1 2 {TOL=0}
X1 1 2 SIOV {T=1+TOL/100 C=55pF L=2.6nH B1=2.7096651 B2=0.0357334 B3=-0.0005032 B4=0.0077073} 
.ENDS
*INCLUDE SIEMMOV.LIB
***********
*SRC=CU3225K275G2;CU3225K275G2;Varistors;Siemens;
*SYM=MOV
.SUBCKT CU3225K275G2 1 2 {TOL=0}
X1 1 2 SIOV {T=1+TOL/100 C=50pF L=2.6nH B1=2.7730828 B2=0.0457647 B3=-0.0003301 B4=0.0072049} 
.ENDS
*INCLUDE SIEMMOV.LIB
***********
*SRC=CU3225K300G2;CU3225K300G2;Varistors;Siemens;
*SYM=MOV
.SUBCKT CU3225K300G2 1 2 {TOL=0}
X1 1 2 SIOV {T=1+TOL/100 C=45pF L=2.6nH B1=2.8132876 B2=0.0462659 B3=-0.0003255 B4=0.0077063} 
.ENDS
*INCLUDE SIEMMOV.LIB
***********
*SRC=CU4032K11G2;CU4032K11G2;Varistors;Siemens;
*SYM=MOV
.SUBCKT CU4032K11G2 1 2 {TOL=0}
X1 1 2 SIOV {T=1+TOL/100 C=3100pF L=2.9nH B1=1.4585508 B2=0.0649742 B3=-0.0005104 B4=0.0218296} 
.ENDS
*INCLUDE SIEMMOV.LIB
***********
*SRC=CU4032K14G2;CU4032K14G2;Varistors;Siemens;
*SYM=MOV
.SUBCKT CU4032K14G2 1 2 {TOL=0}
X1 1 2 SIOV {T=1+TOL/100 C=2500pF L=2.9nH B1=1.5362316 B2=0.0623505 B3=-0.0004510 B4=0.0222960} 
.ENDS
*INCLUDE SIEMMOV.LIB
***********
*SRC=CU4032K14AUTOG2;CU4032K14AUTOG2;Varistors;Siemens;
*SYM=MOV
.SUBCKT CU4032K14AUTOG2 1 2 {TOL=0}
X1 1 2 SIOV {T=1+TOL/100 C=2500pF L=2.9nH B1=1.5362316 B2=0.0623505 B3=-0.0004510 B4=0.0222960} 
.ENDS
*INCLUDE SIEMMOV.LIB
***********
*SRC=CU4032K17G2;CU4032K17G2;Varistors;Siemens;
*SYM=MOV
.SUBCKT CU4032K17G2 1 2 {TOL=0}
X1 1 2 SIOV {T=1+TOL/100 C=1900pF L=2.9nH B1=1.6292548 B2=0.0625346 B3=-0.0005743 B4=0.0223242} 
.ENDS
*INCLUDE SIEMMOV.LIB
***********
*SRC=CU4032K17AUTOG2;CU4032K17AUTOG2;Varistors;Siemens;
*SYM=MOV
.SUBCKT CU4032K17AUTOG2 1 2 {TOL=0}
X1 1 2 SIOV {T=1+TOL/100 C=1900pF L=2.9nH B1=1.6292548 B2=0.0625346 B3=-0.0005743 B4=0.0223242} 
.ENDS
*INCLUDE SIEMMOV.LIB
***********
*SRC=CU4032K20G2;CU4032K20G2;Varistors;Siemens;
*SYM=MOV
.SUBCKT CU4032K20G2 1 2 {TOL=0}
X1 1 2 SIOV {T=1+TOL/100 C=1500pF L=2.9nH B1=1.7164848 B2=0.0629400 B3=-0.0005585 B4=0.0221732} 
.ENDS
*INCLUDE SIEMMOV.LIB
***********
*SRC=CU4032K25G2;CU4032K25G2;Varistors;Siemens;
*SYM=MOV
.SUBCKT CU4032K25G2 1 2 {TOL=0}
X1 1 2 SIOV {T=1+TOL/100 C=1250pF L=2.9nH B1=1.7865297 B2=0.0618059 B3=-0.0005573 B4=0.0229985} 
.ENDS
*INCLUDE SIEMMOV.LIB
***********
*SRC=CU4032K30G2;CU4032K30G2;Varistors;Siemens;
*SYM=MOV
.SUBCKT CU4032K30G2 1 2 {TOL=0}
X1 1 2 SIOV {T=1+TOL/100 C=1050pF L=2.9nH B1=1.8678425 B2=0.0618468 B3=-0.0005980 B4=0.0237474} 
.ENDS
*INCLUDE SIEMMOV.LIB
***********
*SRC=CU4032K30AUTOG2;CU4032K30AUTOG2;Varistors;Siemens;
*SYM=MOV
.SUBCKT CU4032K30AUTOG2 1 2 {TOL=0}
X1 1 2 SIOV {T=1+TOL/100 C=1050pF L=2.9nH B1=1.8678425 B2=0.0618468 B3=-0.0005980 B4=0.0237474} 
.ENDS
*INCLUDE SIEMMOV.LIB
***********
*SRC=CU4032K35G2;CU4032K35G2;Varistors;Siemens;
*SYM=MOV
.SUBCKT CU4032K35G2 1 2 {TOL=0}
X1 1 2 SIOV {T=1+TOL/100 C=850pF L=2.9nH B1=1.9413034 B2=0.0619516 B3=-0.0005154 B4=0.0245079} 
.ENDS
*INCLUDE SIEMMOV.LIB
***********
*SRC=CU4032K40G2;CU4032K40G2;Varistors;Siemens;
*SYM=MOV
.SUBCKT CU4032K40G2 1 2 {TOL=0}
X1 1 2 SIOV {T=1+TOL/100 C=720pF L=2.9nH B1=2.0287060 B2=0.0628254 B3=-0.0005266 B4=0.0237204} 
.ENDS
*INCLUDE SIEMMOV.LIB
***********
*SRC=CU4032K50G2;CU4032K50G2;Varistors;Siemens;
*SYM=MOV
.SUBCKT CU4032K50G2 1 2 {TOL=0}
X1 1 2 SIOV {T=1+TOL/100 C=530pF L=2.9nH B1=2.0269976 B2=0.0343482 B3=-0.0004659 B4=0.0112134} 
.ENDS
*INCLUDE SIEMMOV.LIB
***********
*SRC=CU4032K60G2;CU4032K60G2;Varistors;Siemens;
*SYM=MOV
.SUBCKT CU4032K60G2 1 2 {TOL=0}
X1 1 2 SIOV {T=1+TOL/100 C=480pF L=2.9nH B1=2.1121634 B2=0.0344128 B3=-0.0004529 B4=0.0112199} 
.ENDS
*INCLUDE SIEMMOV.LIB
***********
*SRC=CU4032K75G2;CU4032K75G2;Varistors;Siemens;
*SYM=MOV
.SUBCKT CU4032K75G2 1 2 {TOL=0}
X1 1 2 SIOV {T=1+TOL/100 C=430pF L=2.9nH B1=2.1936833 B2=0.0345325 B3=-0.0004626 B4=0.0106828} 
.ENDS
*INCLUDE SIEMMOV.LIB
***********
*SRC=CU4032K95G2;CU4032K95G2;Varistors;Siemens;
*SYM=MOV
.SUBCKT CU4032K95G2 1 2 {TOL=0}
X1 1 2 SIOV {T=1+TOL/100 C=260pF L=2.9nH B1=2.2921836 B2=0.0349982 B3=-0.0004575 B4=0.0101349} 
.ENDS
*INCLUDE SIEMMOV.LIB
***********
*SRC=CU4032K115G2;CU4032K115G2;Varistors;Siemens;
*SYM=MOV
.SUBCKT CU4032K115G2 1 2 {TOL=0}
X1 1 2 SIOV {T=1+TOL/100 C=220pF L=2.9nH B1=2.3768114 B2=0.0370315 B3=-0.0004633 B4=0.0081660} 
.ENDS
*INCLUDE SIEMMOV.LIB
***********
*SRC=CU4032K130G2;CU4032K130G2;Varistors;Siemens;
*SYM=MOV
.SUBCKT CU4032K130G2 1 2 {TOL=0}
X1 1 2 SIOV {T=1+TOL/100 C=200pF L=2.9nH B1=2.4305240 B2=0.0354058 B3=-0.0004949 B4=0.0080259} 
.ENDS
*INCLUDE SIEMMOV.LIB
***********
*SRC=CU4032K140G2;CU4032K140G2;Varistors;Siemens;
*SYM=MOV
.SUBCKT CU4032K140G2 1 2 {TOL=0}
X1 1 2 SIOV {T=1+TOL/100 C=180pF L=2.9nH B1=2.4615479 B2=0.0352870 B3=-0.0005124 B4=0.0080406} 
.ENDS
*INCLUDE SIEMMOV.LIB
***********
*SRC=CU4032K150G2;CU4032K150G2;Varistors;Siemens;
*SYM=MOV
.SUBCKT CU4032K150G2 1 2 {TOL=0}
X1 1 2 SIOV {T=1+TOL/100 C=170pF L=2.9nH B1=2.4988547 B2=0.0356266 B3=-0.0004969 B4=0.0079963} 
.ENDS
*INCLUDE SIEMMOV.LIB
***********
*SRC=CU4032K175G2;CU4032K175G2;Varistors;Siemens;
*SYM=MOV
.SUBCKT CU4032K175G2 1 2 {TOL=0}
X1 1 2 SIOV {T=1+TOL/100 C=150pF L=2.9nH B1=2.5469960 B2=0.0348646 B3=-0.0005015 B4=0.0085813} 
.ENDS
*INCLUDE SIEMMOV.LIB
***********
*SRC=CU4032K230G2;CU4032K230G2;Varistors;Siemens;
*SYM=MOV
.SUBCKT CU4032K230G2 1 2 {TOL=0}
X1 1 2 SIOV {T=1+TOL/100 C=115pF L=2.9nH B1=2.6719118 B2=0.0350621 B3=-0.0004946 B4=0.0076797} 
.ENDS
*INCLUDE SIEMMOV.LIB
***********
*SRC=CU4032K250G2;CU4032K250G2;Varistors;Siemens;
*SYM=MOV
.SUBCKT CU4032K250G2 1 2 {TOL=0}
X1 1 2 SIOV {T=1+TOL/100 C=105pF L=2.9nH B1=2.7096651 B2=0.0357334 B3=-0.0005032 B4=0.0077073} 
.ENDS
*INCLUDE SIEMMOV.LIB
***********
*SRC=CU4032K275G2;CU4032K275G2;Varistors;Siemens;
*SYM=MOV
.SUBCKT CU4032K275G2 1 2 {TOL=0}
X1 1 2 SIOV {T=1+TOL/100 C=95pF L=2.9nH B1=2.7533272 B2=0.0369607 B3=-0.0004480 B4=0.0073216} 
.ENDS
*INCLUDE SIEMMOV.LIB
***********
*SRC=CU4032K300G2;CU4032K300G2;Varistors;Siemens;
*SYM=MOV
.SUBCKT CU4032K300G2 1 2 {TOL=0}
X1 1 2 SIOV {T=1+TOL/100 C=90pF L=2.9nH B1=2.7906262 B2=0.0363393 B3=-0.0004893 B4=0.0073487} 
.ENDS
*INCLUDE SIEMMOV.LIB
***********
*SRC=CN0603M4G;CN0603M4G;Varistors;Siemens;
*SYM=MOV
.SUBCKT CN0603M4G 1 2 {TOL=0}
X1 1 2 SIOV {T=1+TOL/100 C=200pF L=1.0nH B1=1.1509169 B2=0.0794637 B3=-0.0005618 B4=0.0481413} 
.ENDS
*INCLUDE SIEMMOV.LIB
***********
*SRC=CN0603M6G;CN0603M6G;Varistors;Siemens;
*SYM=MOV
.SUBCKT CN0603M6G 1 2 {TOL=0}
X1 1 2 SIOV {T=1+TOL/100 C=200pF L=1.0nH B1=1.3125743 B2=0.0908265 B3=-0.0000105 B4=0.0390732} 
.ENDS
*INCLUDE SIEMMOV.LIB
***********
*SRC=CN0603K7G;CN0603K7G;Varistors;Siemens;
*SYM=MOV
.SUBCKT CN0603K7G 1 2 {TOL=0}
X1 1 2 SIOV {T=1+TOL/100 C=200pF L=1.0nH B1=1.3466387 B2=0.0830711 B3=-0.0001561 B4=0.0430717} 
.ENDS
*INCLUDE SIEMMOV.LIB
***********
*SRC=CN0603L8G;CN0603L8G;Varistors;Siemens;
*SYM=MOV
.SUBCKT CN0603L8G 1 2 {TOL=0}
X1 1 2 SIOV {T=1+TOL/100 C=150pF L=1.0nH B1=1.4191201 B2=0.0804905 B3=-0.0001366 B4=0.0383382} 
.ENDS
*INCLUDE SIEMMOV.LIB
***********
*SRC=CN0603K11G;CN0603K11G;Varistors;Siemens;
*SYM=MOV
.SUBCKT CN0603K11G 1 2 {TOL=0}
X1 1 2 SIOV {T=1+TOL/100 C=120pF L=1.0nH B1=1.4413090 B2=0.0601155 B3=-0.0004273 B4=0.0617565} 
.ENDS
*INCLUDE SIEMMOV.LIB
***********
*SRC=CN0603K14G;CN0603K14G;Varistors;Siemens;
*SYM=MOV
.SUBCKT CN0603K14G 1 2 {TOL=0}
X1 1 2 SIOV {T=1+TOL/100 C=100pF L=1.0nH B1=1.4902346 B2=0.0487243 B3=-0.0002861 B4=0.0716127} 
.ENDS
*INCLUDE SIEMMOV.LIB
***********
*SRC=CN0805M4G;CN0805M4G;Varistors;Siemens;
*SYM=MOV
.SUBCKT CN0805M4G 1 2 {TOL=0}
X1 1 2 SIOV {T=1+TOL/100 C=700pF L=1.5nH B1=1.1682751 B2=0.0845734 B3=-0.0005679 B4=0.0312760} 
.ENDS
*INCLUDE SIEMMOV.LIB
***********
*SRC=CN0805M6G;CN0805M6G;Varistors;Siemens;
*SYM=MOV
.SUBCKT CN0805M6G 1 2 {TOL=0}
X1 1 2 SIOV {T=1+TOL/100 C=600pF L=1.5nH B1=1.3311583 B2=0.0952949 B3=-0.0001939 B4=0.0194476} 
.ENDS
*INCLUDE SIEMMOV.LIB
***********
*SRC=CN0805L8G;CN0805L8G;Varistors;Siemens;
*SYM=MOV
.SUBCKT CN0805L8G 1 2 {TOL=0}
X1 1 2 SIOV {T=1+TOL/100 C=500pF L=1.5nH B1=1.4352189 B2=0.0844952 B3=-0.0003024 B4=0.0213571} 
.ENDS
*INCLUDE SIEMMOV.LIB
***********
*SRC=CN0805K11G;CN0805K11G;Varistors;Siemens;
*SYM=MOV
.SUBCKT CN0805K11G 1 2 {TOL=0}
X1 1 2 SIOV {T=1+TOL/100 C=400pF L=1.5nH B1=1.4742897 B2=0.0709227 B3=-0.0003747 B4=0.0293089} 
.ENDS
*INCLUDE SIEMMOV.LIB
***********
*SRC=CN0805K14G;CN0805K14G;Varistors;Siemens;
*SYM=MOV
.SUBCKT CN0805K14G 1 2 {TOL=0}
X1 1 2 SIOV {T=1+TOL/100 C=350pF L=1.5nH B1=1.5317870 B2=0.0611157 B3=-0.0003259 B4=0.0285041} 
.ENDS
*INCLUDE SIEMMOV.LIB
***********
*SRC=CN0805S14BAUTOG;CN0805S14BAUTOG;Varistors;Siemens;
*SYM=MOV
.SUBCKT CN0805S14BAUTOG 1 2 {TOL=0}
X1 1 2 SIOV {T=1+TOL/100 C=400pF L=1.5nH B1=1.4881096 B2=0.0468213 B3=-0.0004114 B4=0.0458657} 
.ENDS
*INCLUDE SIEMMOV.LIB
***********
*SRC=CN0805K17G;CN0805K17G;Varistors;Siemens;
*SYM=MOV
.SUBCKT CN0805K17G 1 2 {TOL=0}
X1 1 2 SIOV {T=1+TOL/100 C=300pF L=1.5nH B1=1.5893542 B2=0.0514351 B3=-0.0002527 B4=0.0317308} 
.ENDS
*INCLUDE SIEMMOV.LIB
***********
*SRC=CN0805K20G;CN0805K20G;Varistors;Siemens;
*SYM=MOV
.SUBCKT CN0805K20G 1 2 {TOL=0}
X1 1 2 SIOV {T=1+TOL/100 C=300pF L=1.5nH B1=1.6821093 B2=0.0537368 B3=-0.0002122 B4=0.0281190} 
.ENDS
*INCLUDE SIEMMOV.LIB
***********
*SRC=CN0805K25G;CN0805K25G;Varistors;Siemens;
*SYM=MOV
.SUBCKT CN0805K25G 1 2 {TOL=0}
X1 1 2 SIOV {T=1+TOL/100 C=250pF L=1.5nH B1=1.7586632 B2=0.0552242 B3=-0.0001486 B4=0.0255923} 
.ENDS
*INCLUDE SIEMMOV.LIB
***********
*SRC=CN1206M4G;CN1206M4G;Varistors;Siemens;
*SYM=MOV
.SUBCKT CN1206M4G 1 2 {TOL=0}
X1 1 2 SIOV {T=1+TOL/100 C=1500pF L=1.8nH B1=1.1175481 B2=0.0689500 B3=-0.0004932 B4=0.0356214} 
.ENDS
*INCLUDE SIEMMOV.LIB
***********
*SRC=CN1206M6G;CN1206M6G;Varistors;Siemens;
*SYM=MOV
.SUBCKT CN1206M6G 1 2 {TOL=0}
X1 1 2 SIOV {T=1+TOL/100 C=1200pF L=1.8nH B1=1.3036039 B2=0.0888723 B3=0.0001221 B4=0.0158701} 
.ENDS
*INCLUDE SIEMMOV.LIB
***********
*SRC=CN1206L8G;CN1206L8G;Varistors;Siemens;
*SYM=MOV
.SUBCKT CN1206L8G 1 2 {TOL=0}
X1 1 2 SIOV {T=1+TOL/100 C=1000pF L=1.8nH B1=1.3926420 B2=0.0693089 B3=-0.0005286 B4=0.0245205} 
.ENDS
*INCLUDE SIEMMOV.LIB
***********
*SRC=CN1206K11G;CN1206K11G;Varistors;Siemens;
*SYM=MOV
.SUBCKT CN1206K11G 1 2 {TOL=0}
X1 1 2 SIOV {T=1+TOL/100 C=800pF L=1.8nH B1=1.4504997 B2=0.0643028 B3=-0.0001933 B4=0.0271630} 
.ENDS
*INCLUDE SIEMMOV.LIB
***********
*SRC=CN1206K14G;CN1206K14G;Varistors;Siemens;
*SYM=MOV
.SUBCKT CN1206K14G 1 2 {TOL=0}
X1 1 2 SIOV {T=1+TOL/100 C=700pF L=1.8nH B1=1.5143780 B2=0.0565823 B3=-0.0001848 B4=0.0245667} 
.ENDS
*INCLUDE SIEMMOV.LIB
***********
*SRC=CN1206S14BAUTOG;CN1206S14BAUTOG;Varistors;Siemens;
*SYM=MOV
.SUBCKT CN1206S14BAUTOG 1 2 {TOL=0}
X1 1 2 SIOV {T=1+TOL/100 C=800pF L=1.8nH B1=1.4771189 B2=0.0420269 B3=-0.0004647 B4=0.0347728} 
.ENDS
*INCLUDE SIEMMOV.LIB
***********
*SRC=CN1206K17G;CN1206K17G;Varistors;Siemens;
*SYM=MOV
.SUBCKT CN1206K17G 1 2 {TOL=0}
X1 1 2 SIOV {T=1+TOL/100 C=650pF L=1.8nH B1=1.5726219 B2=0.0459876 B3=-0.0002642 B4=0.0302240} 
.ENDS
*INCLUDE SIEMMOV.LIB
***********
*SRC=CN1206K20G;CN1206K20G;Varistors;Siemens;
*SYM=MOV
.SUBCKT CN1206K20G 1 2 {TOL=0}
X1 1 2 SIOV {T=1+TOL/100 C=600pF L=1.8nH B1=1.6667739 B2=0.0475973 B3=-0.0003424 B4=0.0248011} 
.ENDS
*INCLUDE SIEMMOV.LIB
***********
*SRC=CN1206K25G;CN1206K25G;Varistors;Siemens;
*SYM=MOV
.SUBCKT CN1206K25G 1 2 {TOL=0}
X1 1 2 SIOV {T=1+TOL/100 C=550pF L=1.8nH B1=1.7500881 B2=0.0523199 B3=-0.0001662 B4=0.0218893} 
.ENDS
*INCLUDE SIEMMOV.LIB
***********
*SRC=CN1206K30G;CN1206K30G;Varistors;Siemens;
*SYM=MOV
.SUBCKT CN1206K30G 1 2 {TOL=0}
X1 1 2 SIOV {T=1+TOL/100 C=500pF L=1.8nH B1=1.8224832 B2=0.0493404 B3=-0.0001662 B4=0.0225803} 
.ENDS
*INCLUDE SIEMMOV.LIB
***********
*SRC=CN1206K35G;CN1206K35G;Varistors;Siemens;
*SYM=MOV
.SUBCKT CN1206K35G 1 2 {TOL=0}
X1 1 2 SIOV {T=1+TOL/100 C=300pF L=1.8nH B1=1.8838654 B2=0.0439763 B3=-0.0002616 B4=0.0289946} 
.ENDS
*INCLUDE SIEMMOV.LIB
***********
*SRC=CN1206K40G;CN1206K40G;Varistors;Siemens;
*SYM=MOV
.SUBCKT CN1206K40G 1 2 {TOL=0}
X1 1 2 SIOV {T=1+TOL/100 C=250pF L=1.8nH B1=1.9709570 B2=0.0450069 B3=-0.0002507 B4=0.0294744} 
.ENDS
*INCLUDE SIEMMOV.LIB
***********
*SRC=CN1206K50G;CN1206K50G;Varistors;Siemens;
*SYM=MOV
.SUBCKT CN1206K50G 1 2 {TOL=0}
X1 1 2 SIOV {T=1+TOL/100 C=120pF L=1.8nH B1=2.0621957 B2=0.0485296 B3=-0.0002137 B4=0.0271530} 
.ENDS
*INCLUDE SIEMMOV.LIB
***********
*SRC=CN1206K60G;CN1206K60G;Varistors;Siemens;
*SYM=MOV
.SUBCKT CN1206K60G 1 2 {TOL=0}
X1 1 2 SIOV {T=1+TOL/100 C=100pF L=1.8nH B1=2.1492342 B2=0.0487696 B3=-0.0002276 B4=0.0268212} 
.ENDS
*INCLUDE SIEMMOV.LIB
***********
*SRC=CN1210M4G;CN1210M4G;Varistors;Siemens;
*SYM=MOV
.SUBCKT CN1210M4G 1 2 {TOL=0}