*********************
*SRC=SI9925N;SI9925N;MOSFETs N;Siliconix;20V 5A 50mOhm 
*SYM=POWMOSN
.SUBCKT SI9925N 4 1 2
M1 3 1 2 2 NMOS W=520020U L=1U
R1 4 3 .0195 RTEMP 
CGS  1 2 15PF
CGD  1 6 950PF
DMIN 6 4 DMIN
DMAX 6 1 DMAX
DBODY 2 4 DBODY

.MODEL  NMOS       NMOS (  LEVEL  = 3      TOX = 3E-8      
+ RS = 8.5E-3         RD = 0.0     NSUB = 6.5E16   
+ VTO = 1.74          UO = 539       
+ VMAX = 6E5    XJ = 4E-7   KAPPA  = 0.02    
+ ETA = 3.5E-3 THETA  = 0      TPG = 1         
+ IS = 0      LD = 0   
+ CGSO = 0      CGDO = 0      CGBO = 0)  
.MODEL DMIN D (   CJO=1450E-12     VJ=.35      M=0.82
+FC=0.5 IS=1E-23)
.MODEL DMAX D (   CJO=2300E-12    VJ=.5      M=0.5 
+FC=0.5   IS=1E-15 TT=10E-9)
.MODEL DBODY D (  CJO=900E-12     VJ=.45      M=0.30 
+FC=0.5 IS=1E-12 TT=1.8E-7 N=1 BV=35)
.MODEL RTEMP R (TC1=7.5E-3   TC2=1E-5)
.ENDS
*********************
*SRC=SI9936N;SI9936N;MOSFETs N;Siliconix;30V 5A 50mOhm 
*SYM=POWMOSN
.SUBCKT SI9936N 4 1 2
M1 3 1 2 2 NMOS W=2453000u L=.2u
R1 4 3 9.2e-3 RTEMP 
CGS  1 2 80PF
CGD  1 6 900PF
DMIN 6 4  DMIN
DMAX 6 1  DMAX
DBODY 2 4  DBODY

.MODEL  NMOS       NMOS (  LEVEL  = 3      TOX = 5E-8
+ RS = 26e-3  RD = 0      LD = 0      
+ NSUB = 31.5E16         KP = .165E-5     IS = 0  
+ uo = 500    VMAX = 4E7    ETA = .1E-3
+ XJ = 5E-7   KAPPA  = .08    NFS = 3E12   
+ THETA  = 5E-3   TPG = 1      CGBO = 0
+ CGSO = 0      CGDO = 0      DELTA  = 0.1) 

.MODEL DMIN D ( CJO=700E-12   VJ=.2   M=0.6 FC=0.5)
.MODEL DMAX D ( CJO=800E-12   VJ=.98  M=0.5 
+FC=0.5 IS=.5e-15)
.MODEL DBODY D (CJO=900E-12   VJ=.4   M=0.3
+FC=0.5 IS=1e-10 TT=5.5E-8 N=1 BV=40)
.MODEL RTEMP R (TC1=13.5E-3   TC2=5E-5)
.ENDS
*********************
*SRC=SI9948P;SI9948P;MOSFETs P;Siliconix;60V 2A .28
*SYM=POWMOSP
.SUBCKT SI9948P 4 1 2
R1 4 3 .20 RTEMP
M1 3 1 2 2 PMOS W=477600U L=1U
CDS  1 6 900PF
CGS  1 2 140PF
DMIN 4 6 DMIN
DMAX 1 6 DMAX
DBODY 4 2 DBODY
.MODEL PMOS PMOS (LEVEL= 3      TOX = .5E-7
+ RS  = .04     RD = 0      NSUB = 1E16
+ LD  = 0     UO = 250
+ VTO  = -2.7     PHI = .18      ETA = .01
+ DELTA  = .1     IS = 0      KAPPA  = .005
+ THETA  = .08     NFS = 1E10     TPG = -1.0
+ VMAX  = 1.38E5    XJ = .60E-6
+ CGSO  = 0     CGDO = 0      CGBO = 0)
.MODEL DMIN D (CJO=650E-12 VJ=.50    M=0.93
+  FC=0.5  IS=1E-21)
.MODEL DMAX D (CJO=700E-12     VJ=0.50    M=0.5
+  FC=0.5  IS=1E-14  TT=10E-9)
.MODEL DBODY D (CJO=250E-12  VJ=0.504     PB=0.25
+  FC=0.5    BV=68    IS=1E-12   N=1  TT=1E-7)
.MODEL RTEMP R (TC1=6E-3      TC2=3E-5)
.ENDS
*********************
*SRC=SI9958P;SI9958P;MOSFETs P;Siliconix;20V 3.5A .1
*SYM=POWMOSP
.SUBCKT SI9958P 4 1 2
R1 4 3 .06 RTEMP
M1 3 1 2 2 PMOS W=624148U L=1.0U
CGD  1 6 900PF
CGS 1 2 40PF
DMIN 6 4 DMIN
DMAX 6 1 DMAX
DBODY 4 2 DBODY
.MODEL PMOS PMOS (LEVEL= 3      TOX = .5E-7
+ RS  = .03     RD = 0      NSUB = 3E16
+ LD  = 0     UO = 250
+ VTO  = -2.8     PHI = .18      ETA = .016
+ DELTA  = .1     IS = 0      KAPPA  = .005
+ THETA  = .08     NFS = 1E10     TPG = -1.0
+ VMAX  = 1E7     XJ = .60E-6
+ CGSO  = 0     CGDO = 0      CGBO = 0)
.MODEL DMIN D (   CJO=650E-12    VJ=.50     M=0.93
+  FC=0.5  IS=1E-21)
.MODEL DMAX D (    CJO=700E-12    VJ=0.50     M=0.5
+  FC=0.5  IS=1E-14  TT=10E-9)
.MODEL DBODY D (   CJO=1100E-12      VJ=0.504 M=0.387
+  FC=0.5    BV=28    IS=1E-12   N=1  TT=1.2E-7)
.MODEL RTEMP R (TC1=6E-3     TC2=3E-5)
.ENDS
*********************
*SRC=SUP75N08;SUP75N08;MOSFETs N;Siliconix;60V 75A 8mOhm trench
*SYM=POWMOSN
.SUBCKT SUP75N08 4 1 2
M1 3 1 2 2 NMOS W=8310000U L=.5U
R1 4 3 49e-4 RTEMP 
CGS  1 2 3354PF
CGD  1 6 2400PF
DMIN 6 4 DMIN
DMAX 6 1 DMAX
DBODY 2 4 DBODY

.MODEL  NMOS       NMOS (  LEVEL  = 3      TOX = 8E-8      
+ RS = 14.5E-4         RD = 0      NSUB = 1.55E17
+ UO = 380    NFS = 3E10   DELTA  = 0.1
+ VMAX = 0      XJ = 5E-7   KAPPA  = 0.008
+ ETA = 1.0E-4 THETA  = 0.02   TPG = 1         
+ IS = 0      LD = 0           
+ CGSO = 0      CGDO = 0      CGBO = 0)

.MODEL DMIN D (CJO=4000E-12  VJ=.1  M=0.53 FC=0.5 IS=1E-20 TT=10e-9)
.MODEL DMAX D (CJO=4000E-12  VJ=.9  M=0.79 FC=0.5 IS=1E-22 TT=10E-10)
.MODEL DBODY D (CJO=3500E-12 VJ=.22 M=0.36 FC=0.5 IS=1E-15 TT=1.4E-8 
+N=1 BV=68)
.MODEL RTEMP R (TC1=75.5E-4   TC2=12E-6)
.ENDS
*********************
*SRC=SUP70N14;SUP70N14;MOSFETs N;Siliconix;60V 70A 14mOhm trench 
*SYM=POWMOSN
.subckt SUP70N14 4 1 2
m1 3 1 2 2 NMOS w=4251000u l=.5u
r1 4 3 5.5e-3 rtemp 
cgs  1 2 1414pf
cgd  1 6 2700pf
dmin 6 4 dmin
dmax 6 1 dmax
dbody 2 4 dbody

.MODEL  NMOS       NMOS (  LEVEL  = 3      tox = 8e-8
+ rs = 2e-3   rd = 0      ld = 0      
+ nsub = 4e15   vto = 4.26   
+ uo = 350    vmax = 2e5    eta = 3.0e-4
+ xj = 1e-7   kappa  = 0.05   nfs = .5e10 
+ theta  = 0.36   tpg = 1      cgbo = 0
+ cgso = 0      cgdo = 0      delta  = 0.1 
+ IS = 0)

.MODEL dmin d (CJO=2300pf vj=.08  m=0.48 fc=0.5 IS=1e-20 TT=10e-9)
.MODEL dmax d (CJO=900pf  vj=.06  m=1.5 fc=0.5   IS=1e-16 TT=10e-9)
.MODEL dbody d (CJO=1550pf vj=.4  m=0.36 fc=0.5 IS=1e-15 TT=1.4e-8 
+n=1 bv=68)
.MODEL rtemp r (tc1=7e-3   tc2=2e-5)
.ENDS
*********************
*SRC=SUP60N18;SUP60N18;MOSFETs N;Siliconix;60V 60A 18mOhm trench
*SYM=POWMOSN
.SUBCKT SUP60N18 4 1 2
M1 3 1 2 2 NMOS w=3525000u l=.5u
R1 4 3 5e-3 rtemp 
Cgs  1 2 1360pf
Cgd  1 6 2000pf
Dmin 6 4 dmin
Dmax 6 1 dmax
Dbody 2 4 dbody

.MODEL  NMOS       NMOS (  LEVEL  = 3      tox = 8e-8
+ rs = 7e-3   rd = 0      ld = 0      
+ nsub = 4e15   vto = 4.53   
+ uo = 380    vmax = 6e5    eta = 3.0e-4
+ xj = 1e-7   kappa  = 0.05   nfs = .5e10 
+ theta  = 0.15   tpg = 1      cgbo = 0
+ cgso = 0      cgdo = 0      delta  = 0.1 
+ IS = 0)

.MODEL DMIN D (CJO=1900e-12 vj=.08 m=0.58 fc=0.5 IS=1e-20 TT=10e-9)
.MODEL DMAX D (CJO=900e-12  vj=.06 m=1.5  fc=0.5 IS=1e-16 TT=10e-9)
.MODEL DBODY D (CJO=1350e-12 vj=.5 m=0.36 fc=0.5 IS=1e-15 TT=1.4e-8 
+N=1 BV=68)
.MODEL RTEMP R (TC1=12e-3   TC2=2e-5)
.ENDS
*********************
*SRC=TP0610P;TP0610P;MOSFETs P;Siliconix;60V, 0.18A, 10ohm
*SYM=POWMOSP
.SUBCKT TP0610P 4 1 2
M1 3 1 2 2 PMOS W=3395U L=1U
R1 4 3 0.06 RTEMP 
CGS  1 2 9PF
CGD  1 6 25PF
DMIN 4 6 DMIN
DMAX 1 6 DMAX
DBODY 4 2 DBODY

.MODEL PMOS     PMOS    (LEVEL= 3          tox = 8.5e-8   
+ rs     =0.02    rd = 0      ld = 0    
+ nsub = 7e15   vto = -2.1   IS = 0  
+ uo = 380    vmax = 0      eta = 0.015
+ xj = 7.5e-7 kappa  = 0.0001 
+ theta  = .1511  tpg = -1.0   CGBO = 0
+ CGSO = 0      CGDO = 0      delta  = 0)      

.MODEL DMIN D (CJO=96E-12      VJ=.5     M=.8  
+  FC=0.5 IS=1e-16)
.MODEL DMAX D (CJO=20E-12     VJ=.5     M=0.65  
+  FC=0.5 IS=1e-16 TT=10e-9)
.MODEL DBODY D (CJO=32E-12      VJ=.95     M=0.42
+  FC=0.5     N=1  IS=1E-12    TT=1.65E-7     BV=68)
.MODEL RTEMP R (TC1=2e-1 TC2=0)
.ENDS
*********************
*SRC=SUP65P20;SUP65P20;MOSFETs P;Siliconix;60V 65A 20mOhm trench
*SYM=POWMOSP
.SUBCKT SUP65P20 4 1 2
M1 3 1 2 2 PMOS W=4010100u L=.5u
R1 4 3  6.7e-3 RTEMP
CGS  1 2 3410PF
CGD  1 6 2550PF
DMIN 4 6 DMIN
DMAX 1 6 DMAX
DBODY 4 2 DBODY

.MODEL  PMOS       PMOS (LEVEL  = 3 TOX = 7E-8
+ RS = 4.2e-3 RD = 0 NSUB = 1.25E17   
+ uo = 300 theta  = 1e-6 kp = .09600e-4
+ VMAX = 0 XJ = 1.7E-6 KAPPA  = 15e-2
+ ETA = 0.1E-3 TPG = -1  
+ IS = 0 LD = 0      
+ CGSO = 0 CGDO = 0 CGBO = 0 
+ NFS = 1.1E12 DELTA  = 0.1)  

.MODEL DMIN D (CJO=4180E-12 VJ=.15 M=0.5 FC=0.5)
.MODEL DMAX D (CJO=3000E-12 VJ=.95 M=0.4 FC=0.5 IS=.5e-24)
.MODEL DBODY D (CJO=2450E-12 VJ=.50 M=0.38 FC=0.5 IS=1e-10
+TT=1.4E-8 N=1 BV=70)
.MODEL RTEMP R (TC1=9.5E-3 TC2=5e-6)
.ENDS
*********************
*SRC=SI4410N;SI4410N;MOSFETs N;Siliconix;30V 13.5mohms 10A 
*SYM=POWMOSN
.SUBCKT SI4410N 4 1 2
M1 3 1 2 2 NMOS W=3510000U L=.5U
R1 4 3 85e-4 RTEMP
CGS 1 2 450PF
CGD 1 6 1550PF
DMIN 6 4 DMIN
DMAX 6 1 DMAX
DBODY 2 4 DBODY

.MODEL nmos	nmos ( LEVEL = 3	TOX = 5E-8
+ RS	= 7.5e-4	RD	= 0	NSUB = 2.465E17
+ kp	= .943e-5	UO	= 400
+ VMAX = 7.40e5	XJ	= 5E-7	KAPPA = 0.25
+ ETA = 3.0E-4	TPG = 1	NFS = .5E12
+ IS	= 0	LD	= 0	DELTA = 0.1
+ CGSO = 0	CGDO = 0	CGBO = 0)
.MODEL DMIN D (CJO=600E-12	VJ=.15	M=0.45
+FC=0.5 IS=1E-20 )
.MODEL DMAX D (CJO=1150E-12 VJ=.60	M=0.6
+FC=0.5 is=1e-32 )
.MODEL DBODY D (CJO=900E-12 VJ=.45	M=0.36
+FC=0.5 IS=1E-15 TT=1.4E-8 N=1 BV=40)
.MODEL RTEMP R (TC1=4E-3 TC2=12E-6)
.ENDS
*********************
*SRC=SI4412N;SI4412N;MOSFETs N;Siliconix;30V 28mohms 7A 
*SYM=POWMOSN
.SUBCKT SI4412N 4 1 2
M1 3 1 2 2 NMOS W=1755000u L=.5u
R1 4 3 135e-4 RTEMP
CGS 1 2 550PF
CGD 1 6 550PF
DMIN 6 4 DMIN
DMAX 6 1 DMAX
DBODY 2 4 DBODY
.MODEL nmos	nmos ( LEVEL = 3	TOX = 5E-8
+ RS	= 45.5e-4	RD	= 0	NSUB = 1.85E17
+ kp	= 1.5e-5	UO	= 400
+ VMAX = 0	XJ	= 5E-7	KAPPA = 0.25
+ ETA = 3.0E-4	TPG = 1
+ IS	= 0	LD	= 0
+ CGSO = 0	CGDO = 0	CGBO = 0
+ NFS = .1E12	DELTA = 0.1)
.MODEL DMIN D (CJO=530E-12	VJ=.15	M=0.5
+FC=0.5 IS=1E-20 )
.MODEL DMAX D (CJO=650E-12	VJ=.60	M=0.45
+FC=0.5 is=1e-22 )
.MODEL DBODY D (CJO=950E-12	VJ=.8	M=0.36
+FC=0.5 IS=1E-15 TT=1.4E-8 N=1 BV=40)
.MODEL RTEMP R (TC1=7E-3 TC2=12E-6)
.ENDS
*********************
*SRC=SI4425P;SI4425P;MOSFETs P;Siliconix;30V 14mohms 10A 
*SYM=POWMOSP
.SUBCKT SI4425P 4 1 2
M1 3 1 2 2 PMOS W=7286742U L=.5U
R1 4 3 20e-4 RTEMP
CGS 1 2 1950pf
CGD 1 6 1400pf
DMIN 4 6 DMIN
DMAX 1 6 DMAX
DBODY 4 2 DBODY

.MODEL PMOS	PMOS ( LEVEL = 3	TOX = 5E-8
+ RS	= 58e-4	RD	= 0	NSUB = 5.50E17
+ kp	= 0.50e-5	UO	= 400	vto = -2.8
+ VMAX = 1.70e5	XJ	= .5E-6	KAPPA = 5e-1
+ ETA = 1.0E-4	gamma = .2	TPG = -1
+ IS	= 0	LD	= 0
+ CGSO = 0	CGDO = 0	CGBO = 0
+ NFS = .8E12	DELTA = 0.1)
.MODEL DMIN D (CJO=3200e-12 VJ=.30	M=0.5
+FC=0.5 IS=1E-18 )
.MODEL DMAX D (CJO=3500e-12 VJ=.95	M=0.1
+FC=0.5 is=1e-19 )
.MODEL DBODY D (CJO=1600e-12 VJ=.2	M=0.3
+FC=0.5 IS=1E-15 TT=17.4E-8 N=1 BV=40)
.MODEL RTEMP R (TC1=13.2E-3 TC2=8.5E-6)
.ENDS
*********************
*SRC=SI4431P;SI4431P;MOSFETs P;Siliconix;30V 40mohms 5.8A 
*SYM=POWMOSP
.SUBCKT SI4431P 4 1 2
M1 3 1 2 2 PMOS W=1673620u L=.5u
R1	4 3 10e-3 RTEMP
CGS 1 2 630PF
CGD 1 6 650PF
DMIN 4 6 DMIN
DMAX 1 6 DMAX
DBODY 4 2 DBODY

.MODEL PMOS	PMOS (LEVEL = 3	TOX = 5E-8
+ RS	= 11E-3	RD	= 0	NSUB = 7.2E16
+ UO	= 200	THETA = .5E-3	KP	= .065E-4
+ VMAX = 0	XJ	= 5E-7	KAPPA = 1.5E-2
+ ETA = 1E-3	TPG = -1	NFS = 1.25E12
+ IS	= 0	LD	= 0	DELTA = 0.1
+ CGSO = 0	CGDO = 0	CGBO = 0 )
.MODEL DMIN	D (CJO=660E-12 VJ=.25 M=0.4 FC=0.5 )
.MODEL DMAX D (CJO=1080E-12 VJ=.75 M=0.4 FC=0.5 IS=.5E-15) 
.MODEL DBODY D (CJO=1000E-12 VJ=.35 M=0.335 FC=0.5 
+	IS=5E-10	TT=6.0E-8 N=1	BV=40)
.MODEL RTEMP R (TC1=10E-3	TC2=2.5E-5)
.ENDS
*********************
*SRC=SI4435P;SI4435P;MOSFETs P;Siliconix;30V 20mohms 8A 
*SYM=POWMOSP
.SUBCKT SI4435P 4 1 2
M1 3 1 2 2 PMOS W=3347240u L=.5u
R1 4 3 6E-3 RTEMP
CGS 1 2 1338PF
CGD 1 6 1300PF
DMIN 4 6 DMIN
DMAX 1 6 DMAX
DBODY 4 2 DBODY
.MODEL pmos	pmos (LEVEL = 3	TOX = 5E-8
+ RS	= 5e-3	RD	= 0	NSUB = 7.2E16
+ uo	= 200	theta = .5e-3	kp	= .06e-4
+ VMAX = 0	XJ	= 5E-7	KAPPA = 1.5e-2
+ ETA = 1E-3	TPG = -1
+ IS	= 0	LD	= 0
+ CGSO = 0	CGDO = 0	CGBO = 0
+ NFS = 1.25E12	DELTA = 0.1)
.MODEL DMIN D (CJO=1880E-12	VJ=.25 M=0.52 FC=0.5 )
.MODEL DMAX D (CJO=1080E-12	VJ=.75 M=0.4 FC=0.5 is=.5e-24)
.MODEL DBODY D(CJO=2000E-12	VJ=.35 M=0.335 FC=0.5
+	is=5e-10	TT=2.5E-8	N=1	BV=30)
.MODEL RTEMP R (TC1=10E-3	TC2=1e-5)
.ENDS
*********************
*SRC=SI6426N;SI6426N;MOSFETs N;Siliconix;20V 35mohms 5.4A 
*SYM=POWMOSN
.SUBCKT SI6426N 4 1 2
M1 3 1 2 2 NMOS W=832624U L=.5U
R1 4 3 18E-3 RTEMP
CGS 1 2 905PF
CGD 1 6 2950PF
DMIN 6 4 DMIN
DMAX 6 1 DMAX
DBODY 2 4 DBODY

.MODEL NMOS	NMOS (	LEVEL = 3	TOX	= 1.75E-8
+ RS = 5E-4	RD	= 0	LD	= 0
+	NSUB	= 3.365E17
+ UO = 800	VMAX	= 2E6	ETA	= 3.0E-4
+ XJ = 5E-7	KAPPA	= 0.55	CGBO	= 0
+	TPG	= 1	DELTA	= 0.1
+ CGSO = 0	CGDO	= 0	IS	= 0
+ NFS = .8E12	KP	= 0.603E-4	)
.MODEL DMIN D (CJO=2600E-12	VJ=.06 M=0.55 FC=0.5 IS=1E-20 )
.MODEL DMAX D (CJO=2400E-12	VJ=.60 M=0.5 FC=0.5 is=1e-16 )
.MODEL DBODY D (CJO=1200E-12 VJ=.1 M=0.26 FC=0.5 IS=1E-15 TT=1.4E-8 N=1 BV=40)
.MODEL RTEMP R (TC1=3.6E-3 TC2=12E-6)
.ENDS
*********************
*SRC=SI6433P;SI6433P;MOSFETs P;Siliconix;12V 60mohms 4A 
*SYM=POWMOSP
.SUBCKT SI6433P 4 1 2
M1 3 1 2 2 PMOS W=901600U L=.5U
R1 4 3 .018 RTEMP
CGD 1 6 1450PF
CGS 1 2 170PF
DMIN 4 6 DMIN
DMAX 1 6 DMAX
DBODY 4 2 DBODY
.model pmos pmos (LEVEL=3 TOX =1.75e-8
+ RS	= .0055	RD	= 0	nsub = 1e16
+ ld	= 0	uo	= 200
+ vto = -1.495	eta = 7.1e-4
+ kp	= 1.09e-5	is	= 0	kappa =1e-3
+ theta = 0	nfs = 1e12	tpg = -1.0
+ vmax = 4.3e5	xj	= 5e-7 )

.MODEL DMIN D (	CJO=3100E-12	VJ=0.10 M=0.51
+ FC=0.5 IS = 12e-12)
.MODEL DMAX D (	CJO=3000E-12	VJ=0.1	M=0.45
+ FC=0.5 IS = .8e-20)
.MODEL DBODY D (	CJO=1200E-12	VJ=0.2 M=0.3
+ FC=0.5	BV=15	IS=1E-10 TT=1.4E-7 N=1 )
.MODEL RTEMP R (TC1=3.0E-3	TC2=1E-6 )
.ENDS
*********************
*SRC=SI6434N;SI6434N;MOSFETs N;Siliconix;30V 28mohms 7A 
*SYM=POWMOSN
.SUBCKT SI6434N 4 1 2
M1 3 1 2 2 NMOS W=1755000u L=.5u
R1	4 3 135e-4 RTEMP
CGS 1 2 550PF
CGD 1 6 550PF
DMIN 6 4 DMIN
DMAX 6 1 DMAX
DBODY 2 4 DBODY

.MODEL nmos	nmos ( LEVEL = 3	TOX = 5E-8
+ RS	= 45.5e-4	RD	= 0	NSUB = 1.85E17
+ kp	= 1.5e-5	UO	= 400
+ VMAX = 0	XJ	= 5E-7	KAPPA = 0.25
+ ETA = 3.0E-4	TPG = 1
+ IS	= 0	LD	= 0
+ CGSO = 0	CGDO = 0	CGBO = 0
+ NFS = .1E12	DELTA = 0.1)

.MODEL DMIN D (CJO=530E-12	VJ=.15	M=0.5
+FC=0.5 IS=1E-20 )
.MODEL DMAX D (CJO=650E-12	VJ=.60	M=0.45
+FC=0.5 is=1e-22 )
.MODEL DBODY D (CJO=950E-12	VJ=.8	M=0.36
+FC=0.5 IS=1E-15 TT=1.4E-8 N=1 BV=40)
.MODEL RTEMP R (TC1=7E-3 TC2=12E-6)
.ENDS
*********************
*SRC=SI6436N;SI6436N;MOSFETs N;Siliconix;30V 45MOHM 4.4A 
*SYM=POWMOSN
.SUBCKT SI6436N 4 1 2
M1 3 1 2 2 NMOS W=492336u L=.5u
R1 4 3 11e-3 RTEMP
CGS 1 2 110PF
CGD 1 6 1200PF
DMIN 6 4 DMIN
DMAX 6 1 DMAX
DBODY 2 4 DBODY

.MODEL nmos	nmos ( LEVEL = 3	TOX = 3E-8
+ RS	= 5.1E-3	RD	= 0	NSUB = 4.95E17
+ UO	= 300	NFS = 3E10	DELTA = 0.1
+ VMAX = 0	XJ	= 5E-7	KAPPA = 15E-3
+ ETA = 5E-3	THETA = 35E-2	TPG = 1
+ IS	= 0	LD	= 0
+ CGSO = 0	CGDO = 0	CGBO = 0)

.MODEL DMIN D (CJO=680E-12	VJ=.5	M=0.71 FC=0.5 )
.MODEL DMAX D (CJO=440E-12 VJ=.5	M=0.85 FC=0.5 is=1e-25 )
.MODEL DBODY D (CJO=890E-12 VJ=.5	M=0.33
+FC=0.5 is=1e-10 TT=1.4E-8 N=1 BV=40)
.MODEL RTEMP R (TC1=15E-3 TC2=15e-6)
.ENDS
*********************
*SRC=SI6447P;SI6447P;MOSFETs P;Siliconix;20V 3A 90MOHM 
*SYM=POWMOSP
.SUBCKT SI6447P 4 1 2
M1 3 1 2 2 pMOS W=492336u L=.5u
R1 4 3 28e-3 RTEMP
CGS 1 2 146PF
CGD 1 6 950PF
DMIN 4 6 DMIN
DMAX 1 6 DMAX
DBODY 4 2 DBODY

.MODEL pmos	pmos ( LEVEL = 3	TOX = 3E-8
+ RS	= 22e-3	RD	= 0	NSUB = 1.6E17
+ uo	= 200	theta = 1e-6	kp	= .1015e-4
+ VMAX = 0	XJ	= 5E-7	KAPPA = 1e-1
+ ETA = 0.8E-3	TPG = -1
+ IS	= 0	LD	= 0
+ CGSO = 0	CGDO = 0	CGBO = 0
+ NFS = 3E12	DELTA = 0.1 )

.MODEL DMIN D (CJO=880E-12	VJ=.25	M=0.58 FC=0.5 )
.MODEL DMAX D (CJO=480E-12	VJ=.75	M=0.4 FC=0.5 is=.5e-24)
.MODEL DBODY D (CJO=990E-12	VJ=.35	M=0.335
+FC=0.5 is=1e-10 TT=1.4E-8 N=1 BV=30)
.MODEL RTEMP R (TC1=10E-3 TC2=0)
.ENDS
*********************
*SRC=SI6542N;SI6542N;MOSFETs N;Siliconix;20V 2.5A 90MOHM 
*SYM=POWMOSN
.SUBCKT SI6542N 4 1 2
M1 3 1 2 2 NMOS W=283290u L=.5u
R1 4 3 32.5e-3 RTEMP
CGS 1 2 75PF
CGD 1 6 500PF
DMIN 6 4 DMIN
DMAX 6 1 DMAX
DBODY 2 4 DBODY

.MODEL nmos	nmos ( LEVEL = 3	TOX = 5E-8
+ RS	= 13e-3	RD	= 0	TPG = 1
+ LD	= 0	XJ	= 5E-7
+ UO	= 420	VMAX = 0	NSUB = 1.965E17
+ KAPPA = 5e-2	ETA = 1.1E-3	THETA = 20.0e-2
+ NFS = 3E12	DELTA = 0.1	IS	= 0
+ CGBO = 0	CGSO = 0	CGDO = 0 )

.MODEL DMIN D ( CJO=480E-12	VJ=.3 M=0.55 FC=0.5 )
.MODEL DMAX D ( CJO=240E-12	VJ=.9 M=0.4 FC=0.5 IS=1e-23 )
.MODEL DBODY D ( CJO=380E-12	VJ=.35 M=0.3 FC=0.5
+TT=1.4E-8 N=1 BV=30)
.MODEL RTEMP R (TC1=8E-3 TC2=0)
.ENDS
*********************
*SRC=SI6542P;SI6542P;MOSFETs P;Siliconix;20V 1.9A 175MOHM 
*SYM=POWMOSP
.SUBCKT SI6542P 4 1 2
M1 3 1 2 2 pMOS W=283290u L=.5u
R1 4 3 40e-3 RTEMP
CGS 1 2 132PF
CGD 1 6 450PF
DMIN 4 6 DMIN
DMAX 1 6 DMAX
DBODY 4 2 DBODY

.MODEL pmos	pmos ( LEVEL = 3	TOX = 5E-8
+ RS	= 56e-3	RD	= 0	NSUB = 8.7E16
+ uo	= 110	theta = 2e-4
+ VMAX = 0	XJ	= 5E-7	KAPPA = 3e-1
+ ETA = 0.8E-3	TPG = -1
+ IS	= 0	LD	= 0
+ CGSO = 0	CGDO = 0	CGBO = 0
+ NFS = 3E12	DELTA = 0.1)

.MODEL DMIN D (CJO=380E-12	VJ=.25 M=0.58 FC=0.5 )
.MODEL DMAX D (CJO=180E-12	VJ=.75 M=0.4 FC=0.5 is=.5e-24)
.MODEL DBODY D (CJO=590E-12 VJ=.35 M=0.335 FC=0.5 is=1e-10 TT=1.4E-8 N=1 BV=30)
.MODEL RTEMP R (TC1=14E-3 TC2=0)
.ENDS
*********************
*SRC=SI6552N;SI6552N;MOSFETs N;Siliconix;20V 2.8A 80MOHM 
*SYM=POWMOSN
.SUBCKT SI6552N 4 1 2
M1 3 1 2 2 NMOS W=298454U	L=.5U
R1 4 3 45e-3 RTEMP
CGS	1 2 280PF
CGD	1 6 1165PF
DMIN 6 4 DMIN
DMAX 6 1 DMAX
DBODY 2 4	DBODY


.MODEL NMOS	NMOS (	LEVEL =	3	TOX	=	1.75E-8
+ RS =	55e-4	RD	=	0	LD	=	0
+	NSUB =	2.6E17	kp	=	0.8e-4
+UO	=	800	VMAX =	1E6	ETA	=	3.0E-4
+XJ	=	.5E-6	KAPPA =	0.25	NFS	=	.8E12
+	TPG	=	1	CGBO =	0
+CGSO =	0	CGDO =	0	DELTA =	0.1
+ IS =	0	)

.MODEL DMIN D (CJO=932PF	VJ=.06	M=0.6 FC=0.5 IS=1E-18 )
.MODEL DMAX D (CJO=860PF VJ=.60	M=0.5 FC=0.5 is=1E-19 )
.MODEL DBODY D (CJO=430PF VJ=.15	M=0.26 FC=0.5 IS=1E-15 TT=1.4E-8 N=1 BV=40)
.MODEL RTEMP R (TC1=3.2E-3 TC2=12E-6)
.ENDS
*********************
*SRC=SI6552P;SI6552P;MOSFETs P;Siliconix;12V 2.5A 100MOHM 
*SYM=POWMOSP
.SUBCKT SI6552P 4 1 2
M1 3 1 2 2 PMOS W=298454U L=.5U
R1 4 3 15e-3 RTEMP
CGS 1 2 400e-12
CGD 1 6 1195e-12
DMIN 4 6 DMIN
DMAX 1 6 DMAX
DBODY 4 2 DBODY

.MODEL PMOS	PMOS ( LEVEL = 3	TOX = 1.75E-8
+ RS	= 22e-3	RD	= 0	NSUB = 1.0E16
+ kp	= 0.250e-4	UO	= 400
+ VMAX = 0	XJ	= .5E-6	KAPPA = 1e-3
+ ETA = 1.0E-4	TPG = -1
+ IS	= 0	LD	= 0
+ CGSO = 0	CGDO = 0	CGBO = 0
+NFS = .8E12	DELTA = 0.1)

.MODEL DMIN D (CJO=1617e-12 VJ=.1	M=0.58
+FC=0.5 IS=1E-18 )
.MODEL DMAX D (CJO=900e-12 VJ=.80	M=0.5
+FC=0.5 is=1e-20 )
.MODEL DBODY D (CJO=580e-12 VJ=.15	M=0.26
+FC=0.5 IS=1E-15 TT=1.4E-8 N=1 BV=40)
.MODEL RTEMP R (TC1=3.2E-3 TC2=12E-6)
.ENDS
*********************
*SRC=SI6801N;SI6801N;MOSFETs N;Siliconix;20V 1.9A 160MOHM 
*SYM=POWMOSN
.SUBCKT SI6801N 4 1 2
M1 3 1 2 2 NMOS W=168714U	L=.5U
R1 4 3 69E-3 RTEMP
CGS	1 2	100E-12
CGD	1 6 1095E-12
DMIN 6 4 DMIN
DMAX 6 1 DMAX
DBODY 2 4 DBODY

.MODEL NMOS	NMOS (	LEVEL =	3	TOX	=	3.0E-8
+ RS =	17e-3	RD	=	0	LD	=	0
+NSUB =	1.45E17	kp	=	3.15e-5
+UO	=	800	VMAX =	0	ETA	=	3.0E-4
+XJ	=	.5E-6	KAPPA =	0.08	NFS	=	.8E12
+	TPG	=	1	CGBO =	0
+CGSO =	0	CGDO =	0	DELTA =	0.1
+IS	=	0	)

.MODEL DMIN D (CJO=60E-12	VJ=.4	M=0.3
+FC=0.5)
.MODEL DMAX D (CJO=200E-12	VJ=.60	M=0.5
+FC=0.5 is=1E-27 )
.MODEL DBODY D (CJO=320E-12	VJ=.5	M=0.35
+FC=0.5 IS=1E-15 TT=5.7E-8 N=1 BV=40)
.MODEL RTEMP R (TC1=7.2E-3 TC2=12E-6)
.ENDS
*********************
*SRC=SI6801P;SI6801P;MOSFETs P;Siliconix;20V 1.7A 190MOHM 
*SYM=POWMOSP
.SUBCKT SI6801P 4 1 2
M1 3 1 2 2 PMOS W=232050u L=.3u
R1 4 3 50e-3 RTEMP
CGS 1 2 160PF
CGD 1 6 800PF
DMIN 4 6 DMIN
DMAX 1 6 DMAX
DBODY 4 2 DBODY

.MODEL PMOS	PMOS (LEVEL = 3	TOX = 3E-8
+ RS	= 57.0e-3	RD	= 0	NSUB = 4.7E16
+ uo	= 200	theta = .01e-3	kp	= .12e-4
+ VMAX = 0	XJ	= 5E-7	KAPPA = 0.5e-2
+ ETA = 1E-4	TPG = -1
+ IS	= 0	LD	= 0
+ CGSO = 0	CGDO = 0	CGBO = 0
+ NFS = 1.25E12	DELTA = 0.1)

.MODEL DMIN D (CJO=260E-12	VJ=.2 M=0.4 FC=0.5 )
.MODEL DMAX D (CJO=180E-12	VJ=.75 M=0.4 FC=0.5 is=.5e-18)
.MODEL DBODY D(CJO=450E-12	VJ=.35	M=0.32 FC=0.5
+	IS=5e-10	TT=2.5E-8	N=1	BV=40)
.MODEL RTEMP R (TC1=12E-3	TC2=2.5e-5)
.ENDS
*********************
*SRC=SI6943p;SI6943P;MOSFETs P;Siliconix;12V 2.5A 100MOHM 
*SYM=POWMOSP
.SUBCKT SI6943P 4 1 2
M1 3 1 2 2 PMOS W=298454U	L=.5U
R1 4 3 8e-3 RTEMP
CGS	1 2 92E-12
CGD	1 6 1195e-12
DMIN	4 6 DMIN
DMAX	1 6 DMAX
DBODY 4 2 DBODY

.MODEL PMOS	PMOS ( LEVEL = 3	TOX	=	1.75E-8
+ RS =	22e-3	RD	=	0	LD	=	0
+	NSUB =	1.0E16	kp	=	0.250e-4
+UO	=	400	VMAX =	0	ETA	=	1.0E-4
+XJ	=	.5E-6	KAPPA =	1e-3	NFS	=	.8E12
+	TPG	=	-1	CGBO =	0
+CGSO =	0	CGDO =	0	DELTA =	0.1
+IS	=	0	)

.MODEL DMIN D (CJO=1617e-12 VJ=.1	M=0.58	FC=0.5 IS=1E-18 )
.MODEL DMAX D (CJO=900e-12 VJ=.80	M=0.5 FC=0.5 is=1e-20 )
.MODEL DBODY D (CJO=580e-12 VJ=.15	M=0.26
+FC=0.5 IS=1E-15 TT=1.4E-8 N=1 BV=40)
.MODEL RTEMP R (TC1=3.2E-3 TC2=12E-6)
.ENDS
*********************
*SRC=SI6946N;SI6946N;MOSFETs N;Siliconix;20V 2.8A 80MOHM 
*SYM=POWMOSN
.SUBCKT SI6946N 4 1 2
M1 3 1 2 2 NMOS W=298454U	L=.5U
R1 4 3 45e-3 RTEMP
CGS	1 2 280PF
CGD	1 6 1165PF
DMIN 6 4 DMIN
DMAX 6 1 DMAX
DBODY 2 4	DBODY

.MODEL NMOS	NMOS (	LEVEL =	3	TOX	=	1.75E-8
+ RS =	55e-4	RD	=	0	LD	=	0
+	NSUB =	2.6E17	kp	=	0.8e-4
+UO	=	800	VMAX =	1E6	ETA	=	3.0E-4
+XJ	=	.5E-6	KAPPA =	0.25	NFS	=	.8E12
+	TPG	=	1	CGBO =	0
+CGSO =	0	CGDO =	0	DELTA =	0.1
+ IS =	0	)

.MODEL DMIN D (CJO=932PF	VJ=.06	M=0.6 FC=0.5 IS=1E-18 )
.MODEL DMAX D (CJO=860PF VJ=.60	M=0.5 FC=0.5 is=1E-19 )
.MODEL DBODY D (CJO=430PF VJ=.15	M=0.26 FC=0.5 IS=1E-15 TT=1.4E-8 N=1 BV=40)
.MODEL RTEMP R (TC1=3.2E-3 TC2=12E-6)
.ENDS
*********************
*SRC=SI6953P;SI6953P;MOSFETs P;Siliconix;20V 1.9A 170MOHM 
*SYM=POWMOSP
.SUBCKT SI6953P 4 1 2
M1 3 1 2 2 pMOS W=283290u L=.5u
R1 4 3 40e-3 RTEMP
CGS 1 2 132PF
CGD 1 6 450PF
DMIN 4 6 DMIN
DMAX 1 6 DMAX
DBODY 4 2 DBODY

.MODEL pmos	pmos ( LEVEL = 3	TOX = 5E-8
+ RS	= 56e-3	RD	= 0	NSUB = 8.7E16
+ uo	= 110	theta = 2e-4
+ VMAX = 0	XJ	= 5E-7	KAPPA = 3e-1
+ ETA = 0.8E-3	TPG = -1
+ IS	= 0	LD	= 0
+ CGSO = 0	CGDO = 0	CGBO = 0
+ NFS = 3E12	DELTA = 0.1)

.MODEL DMIN D (CJO=380E-12	VJ=.25 M=0.58 FC=0.5 )
.MODEL DMAX D (CJO=180E-12	VJ=.75 M=0.4 FC=0.5 is=.5e-24)
.MODEL DBODY D (CJO=590E-12 VJ=.35 M=0.335 FC=0.5 is=1e-10 TT=1.4E-8 N=1 BV=30)
.MODEL RTEMP R (TC1=14E-3 TC2=0)
.ENDS
*********************
*SRC=SI6954N;SI6954N;MOSFETs N;Siliconix;30V 3.9A 65MOHM 
*SYM=POWMOSN
.SUBCKT SI6954N 4 1 2
M1 3 1 2 2 NMOS W=639917u L=.5u
R1 4 3 140e-4 RTEMP
CGS 1 2 310e-12
CGD 1 6 100e-12
DMIN 6 4 DMIN
DMAX 6 1 DMAX
DBODY 2 4 DBODY

.MODEL nmos	nmos ( LEVEL = 3	TOX = 5E-8
+ RS	= 168.5e-4	RD	= 0	NSUB = 1.995E17
+ kp	= 1.20e-5	UO	= 400	vto	= 2.80
+ gamma =1	phi	=.15	ETA	= 3.0E-4
+ XJ	= 2.8E-7	KAPPA = 0.05	TPG	= 1
+ IS	= 0	LD	= 0
+ CGSO = 0	CGDO = 0	CGBO = 0
+ NFS = .1E12	DELTA = 0.1)

.MODEL DMIN D (CJO=230E-12	VJ=.15	M=0.5
+FC=0.5 IS=1E-20 )
.MODEL DMAX D (CJO=650E-12 VJ=.60	M=0.45
+FC=0.5 is=1e-22 )
.MODEL DBODY D (CJO=450E-12	VJ=.8	M =0.36
+FC=0.5 IS=1E-15 TT=4E-8 N=1 BV=40)
.MODEL RTEMP R (TC1 =10E-3 TC2 =14E-6)
.ENDS
*********************
*SRC=SI6956N;SI6956N;MOSFETs N;Siliconix;20V 2.5A 90MOHM 
*SYM=POWMOSN
.SUBCKT SI6956N 4 1 2
M1 3 1 2 2 NMOS W=283290u L=.5u
R1 4 3 32.5e-3 RTEMP
CGS 1 2 75PF
CGD 1 6 500PF
DMIN 6 4 DMIN
DMAX 6 1 DMAX
DBODY 2 4 DBODY

.MODEL nmos	nmos ( LEVEL = 3	TOX = 5E-8
+ RS	= 13e-3	RD	= 0	TPG = 1
+ LD	= 0	XJ	= 5E-7
+ UO	= 420	VMAX = 0	NSUB = 1.965E17
+ KAPPA = 5e-2	ETA = 1.1E-3	THETA = 20.0e-2
+ NFS = 3E12	DELTA = 0.1	IS	= 0
+ CGBO = 0	CGSO = 0	CGDO = 0 )

.MODEL DMIN D ( CJO=480E-12	VJ=.3 M=0.55 FC=0.5 )
.MODEL DMAX D ( CJO=240E-12	VJ=.9 M=0.4 FC=0.5 IS=1e-23 )
.MODEL DBODY D ( CJO=380E-12	VJ=.35 M=0.3 FC=0.5
+TT=1.4E-8 N=1 BV=30)
.MODEL RTEMP R (TC1=8E-3 TC2=0)
.ENDS
*********************
*SRC=SI9400P;SI9400P;MOSFETs P;Siliconix;20V 2.5A.16 
*SYM=POWMOSP
.SUBCKT SI9400P 4 1 2
M1 3 1 2 2 PMOS W=283000U L=1U
R1 4 3 .018 RTEMP
CGD 1 6 800PF
CGS 1 2 70PF
DMIN 4 6 DMIN
DMAX 1 6 DMAX
DBODY 4 2 DBODY
.MODEL pmos	pmos (level= 3	TOX = 5E-8
+ RS	= 0.023	RD	= 0.0	LD	= .7E-7
+ NSUB = 1E16	VTO = -3.1
+ UO	= 240	VMAX = .7E7	delta = .1
+ XJ	= 1.3E-6	KAPPA = 1.000	ETA = 0.014
+ THETA = .47	TPG = -1	NFS = 6E10
+ CGSO = 0.0	CGDO = 0.0	CGBO = 0.0
+ GAMMA = 1	PHI = .5	IS=0 )
.MODEL DMIN D (CJO=800E-12	VJ=0.50	M=0.75
+ FC=0.5 IS=1E-21 )
.MODEL DMAX D (CJO=10E-12	VJ=0.50	M=0.50
+ FC=0.5	IS=1E-14	TT=10E-9	)
.MODEL DBODY D (CJO=1100E-12	VJ=0.504	M=0.487
+ FC=0.5	IS=1E-8	N=1.5	TT=19E-8	BV=28 )
.MODEL RTEMP R (TC1=6E-3	TC2=3E-5)
.ENDS
*********************
*SRC=SI9405P;SI9405P;MOSFETs P;Siliconix;20V 4.3A .07 
*SYM=POWMOSP
.SUBCKT SI9405P 4 1 2
M1 3 1 2 2 PMOS W=735640U L=1U
R1 4 3 .009 RTEMP
CDS 1 6 2500PF
CGS 1 2 143PF
DMIN 4 6 DMIN
DMAX 1 6 DMAX
DBODY 4 2 DBODY
.MODEL pmos	pmos (level= 3	TOX = 5E-8
+ RS	= 0.009	RD	= 0.0	LD	= .45E-7
+ NSUB = 1E16	VTO = -2.4
+ UO	= 200	VMAX = .7E6	delta = .1
+ XJ	= 1.3E-6	KAPPA = 1.000	ETA = 0.016
+ THETA = .5	TPG = -1	NFS = 6E10
+ CGSO = 0.0	CGDO = 0.0	CGBO = 0.0
+ GAMMA = 1	PHI = .7	IS	= 0 )

.MODEL DMIN D (CJO=1800E-12	VJ=0.50	M=0.70
+ FC=0.5 IS=1E-21 )
.MODEL DMAX D (CJO=1500E-12	VJ=0.50	M=0.50
+ FC=0.5 IS=1E-14 TT=10E-9)
.MODEL DBODY D (CJO=970E-12	VJ=0.504	M=0.187
+ FC=0.5 BV=28 IS=1E-12 TT=1.27E-7 N=1)
.MODEL RTEMP R (TC1=6E-3 TC2= 3E-5 )
.ENDS
*********************
*SRC=SI9407P;SI9407P;MOSFETs P;Siliconix;60V 3A 150MOHM 
*SYM=POWMOSP
.SUBCKT SI9407P 4 1 2
M1 3 1 2 2 PMOS W=877600U L=1U
R1 4 3 .054 RTEMP
CGS 1 2 143PF
CGD 1 6 1750PF
DMIN 4 6 DMIN
DMAX 1 6 DMAX
DBODY 4 2 DBODY

.model PMOS	pmos (level= 3	tox = 5e-8
+ rs	= .054	rd	= 0	ld	= 0
+ Nsub = 1.5e15	vto = -2.75
+ uo	= 280	vmax = 0	eta = 0.001
+ xj	= 4.5e-7	kappa = 0.001
+ theta = 1e-10	tpg = -1.0	CGBO = 0
+ CGSO = 0	CGDO = 0	is	= 0 )

.MODEL DMIN D (CJO=2500E-12	VJ=0.150	M=0.79
+ FC=0.5 is=1e-23)
.MODEL DMAX D (CJO=2100E-12	VJ=0.15	M=0.99
+ FC=0.5 is=1e-15 tt=10e-9)
.MODEL DBODY D (CJO=1700E-12	VJ=0.95	M=0.7
+ FC=0.5	N=1 IS=1E-12 TT=1.65E-8	BV=68 )
.MODEL RTEMP R (TC1=1.25E-3	TC2=2E-5 )
.ENDS
*********************
*SRC=SI9410N;SI9410N;MOSFETs N;Siliconix;30V 7A .03 
*SYM=POWMOSN
.SUBCKT SI9410N 4 1 2
R1 4 3 .008 RTEMP
M1 3 1 2 2 NMOS W=877600U L=1.0U
CGD 1 6 2500PF
CGS 1 2 2PF
DMIN 6 4 DMIN
DMAX 6 1 DMAX
DBODY 2 4 DBODY
.MODEL NMOS	NMOS (LEVEL= 3	TOX = .5E-7
+ RS	= .008	RD	= 0	NSUB = 1E16
+ LD	= 0	GAMMA = 1
+ VTO = 2.8	PHI = .20000	UO	= 320
+ DELTA = 1	IS	= 0	ETA = .008
+ THETA = .17	NFS = 5.0E10	KAPPA = .0015
+ VMAX = .80E6	XJ	= 1.45E-6	TPG = 1.0
+ CGBO=0	CGSO=0	CGDO=0 )
.MODEL DMIN D (CJO=1500E-12	VJ=0.5 M=0.541
+ FC=0.503 IS=1E-21 )
.MODEL DMAX D (CJO=2300E-12	VJ=0.5 M=0.5
+ FC=0.503 IS=1E-14 TT=10E-9 )
.MODEL DBODY D (IS=1E-12 N=2 CJO=2800E-12 VJ=.413 M=0.57 FC=.500	BV=38 TT=9E-8)
.MODEL RTEMP R ( TC1=9E-3	TC2=4E-5 )
.ENDS
*********************
*SRC=SI9424P;SI9424P;MOSFETs P;Siliconix;12V 7.7A 25MOHM 
*SYM=POWMOSP
.SUBCKT SI9424P 4 1 2
M1 3 1 2 2 PMOS W=1895218u L=.5U
R1 4 3 9.7e-3 RTEMP
CGS 1 2 920e-12
CGD 1 6 1250e-12
DMIN 4 6 DMIN
DMAX 1 6 DMAX
DBODY 4 2 DBODY

.MODEL PMOS	PMOS ( LEVEL = 3	TOX = 1.75E-8
+ RS	= 4e-3	RD	= 0	NSUB = 3.050E16
+ kp	= 0.2120e-4	UO	= 400
+ VMAX = 0	XJ	= .5E-6	KAPPA = 2e-3
+ ETA = 1.0E-4	TPG = -1
+ IS	= 0	LD	= 0
+ CGSO = 0	CGDO = 0	CGBO = 0
+ NFS = .8E12	DELTA = 0.1)

.MODEL DMIN D (CJO=8517e-12 vj=.05	M=0.55
+FC=0.5 IS=1E-18 )
.MODEL DMAX D (CJO=7000e-12 vj=.95	M=0.1
+FC=0.5 is=1e-20 )
.MODEL DBODY D (CJO=2600e-12 vj=.35	M=0.3
+FC=0.5 IS=1E-15 TT=17.4E-8 N=1 BV=40)
.MODEL RTEMP R (TC1=5.2E-3 TC2=12E-6)
.ENDS
*********************
*SRC=SI9426N;SI9426N;MOSFETs N;Siliconix;20V 10A 135MOHM 
*SYM=POWMOSN
.SUBCKT SI9426N 4 1 2
M1 3 1 2 2 NMOS W=1900756U L=.35u
R1 4 3 6.5e-3 RTEMP
CGS 1 2 1655PF
CGD 1 6 3901PF
DMIN 6 4 DMIN
DMAX 6 1 DMAX
DBODY 2 4 DBODY

.MODEL nmos	nmos ( LEVEL = 3	TOX = 1.75E-8
+ RS	= 1.6e-3	RD	= 0.1e-3	NSUB = 1.85E17
+ kp	= 4.8e-5	UO	= 400	vt0 = 1.6
+ VMAX = 0	XJ	= 5E-7	KAPPA = 0.15
+ ETA = 1.0E-5	TPG = 1
+ IS	= 0	LD	= 0
+ CGSO = 0	CGDO = 0	CGBO = 0
+NFS = .1E12	DELTA = 0.1)

.MODEL DMIN D (CJO=9528PF	VJ=.02
+M=0.6 FC=0.5 IS=1E-20 )
.MODEL DMAX D (CJO=4847PF	VJ=.95
+M=0.1 FC=0.5 is=1e-20 )
.MODEL DBODY D (CJO=2482.5PF VJ=.37
+M=0.33 FC=0.5 IS=1E-15 TT=1.4E-8 N=1 BV=40) 
.MODEL RTEMP R (TC1=7E-3 TC2=12E-6)
.ENDS
*********************
*SRC=SI9430P;SI9430P;MOSFETs P;Siliconix;20V 5.8A .05 
*SYM=POWMOSP
.SUBCKT SI9430P 4 1 2
R1 4 3 .02 RTEMP
M1 3 1 2 2 PMOS W=1005100U L=1U
CDS 1 6 2500PF
CGS 1 2 20PF
DMIN 4 6 DMIN
DMAX 1 6 DMAX
DBODY 4 2 DBODY
.MODEL PMOS	PMOS (LEVEL= 3	TOX = .5E-7
+ RS	= .02	RD	= 0	NSUB = 3E16
+ LD	= 0	UO	= 290
+ VTO = -2.8	PHI = .20000	ETA = .014
+ DELTA = .1	IS	= 0	KAPPA = .005
+ THETA = .03	NFS = 1E12	TPG = -1.0
+ VMAX = 1E8	XJ	= .60E-6	CGSO = 0
+ CGDO = 0	CGBO = 0 )
*end of parameters
.MODEL DMIN D ( CJO=1500E-12	VJ=.50	M=0.70
+ FC=0.5 IS=1E-21 )
.MODEL DMAX D ( CJO=1500E-12	VJ=0.50	M=0.5
+ FC=0.5 IS=1E-14 TT=10E-9)
.MODEL DBODY D ( CJO=1320E-12	VJ=0.504	M=0.487
+ FC=0.5 BV=28 IS=1E-12 N=1 TT=.55E-7 )
.MODEL RTEMP R (TC1=6E-3	TC2=3E-5)
.ENDS
*********************
*SRC=SI9434P;SI9434P;MOSFETs P;Siliconix;12V 6.4A .04 OHM 
*SYM=POWMOSP
.SUBCKT SI9434P 4 1 2
M1 3 1 2 2 pMOS W=1705200u L=.5u
R1 4 3 6e-3 RTEMP
CGS 1 2 247PF
CGD 1 6 9000PF
DMIN 4 6 DMIN
DMAX 1 6 DMAX
DBODY 4 2 DBODY

.MODEL pmos	pmos ( LEVEL = 3	TOX = 1.75E-8
+ RS	= 8e-3	RD	= 0	LD	= 0
+ NSUB = 12E16	KP	= 1.22E-5
+ uo	= 200	VMAX = 5E8	ETA = 0.8E-3
+ XJ	= 5E-7	KAPPA = 1e-1	NFS = 3E12
+ THETA = 5E-3	TPG = -1	CGBO = 0
+ CGSO = 0	CGDO = 0	DELTA = 0.1
+ IS	= 0	)

.MODEL DMIN D ( CJO=2800E-12	VJ=.2	M=0.3
+FC=0.5 )
.MODEL DMAX D (CJO=4500E-12	VJ=.98	M=0.5
+FC=0.5 is=.5e-19)
.MODEL DBODY D (CJO=3500E-12	VJ=.2	M=0.53
+FC=0.5 is=1e-10 TT=4.5E-8 N=1 BV=30)
.MODEL RTEMP R (TC1=70E-4 TC2=0)
.ENDS
*********************
*SRC=SI9435P;SI9435P;MOSFETs P;Siliconix;30V 5.5A 55MOHM 
*SYM=POWMOSP
.SUBCKT SI9435P 4 1 2
R1 4 3 .025 RTEMP
M1 3 1 2 2 PMOS W=1005100U L=1U
CDS 1 6 2300PF
CGS 1 2 100PF
DMIN 4 6 DMIN
DMAX 1 6 DMAX
DBODY 4 2 DBODY

.MODEL PMOS	PMOS (LEVEL= 3	TOX = .5E-7
+ RS	= .02	RD	= 0	NSUB = 2E16
+ LD	= 0	UO	= 270
+ VTO = -2.8	PHI = .18	ETA = .01
+ DELTA = .1	IS	= 0	KAPPA = .005
+ THETA = .07	NFS = 1E10	TPG = -1.0
+ VMAX = 1E7	XJ	= .60E-6
+ CGSO = 0	CGDO = 0	CGBO = 0 )

.MODEL DMIN D ( CJO=1130E-12	VJ=.50	M=0.75
+ FC=0.5 IS=1E-21 )
.MODEL DMAX D ( CJO=1200E-12	VJ=0.50	M=0.5
+ FC=0.5 IS=1E-14 TT=10E-9)
.MODEL DBODY D ( CJO=770E-12	VJ=0.504	M=0.194
+ FC=0.5 BV=38 IS=1E-12 N=1 TT=1.2E-7 )
.MODEL RTEMP R (TC1=6E-3 TC2=3E-5)
.ENDS
*********************
*SRC=SI9529N;SI9529N;MOSFETs P;Siliconix;20V 6A 30MOHM 
*SYM=POWMOSN
.SUBCKT SI9529N 4 1 2
M1 3 1 2 2 NMOS W=803946U L=.35u
R1 4 3 14.5e-3 RTEMP
CGS 1 2 700PF
CGD 1 6 1650PF
DMIN 6 4 DMIN
DMAX 6 1 DMAX
DBODY 2 4 DBODY

.MODEL nmos	nmos ( LEVEL = 3	TOX = 1.75E-8
+ RS	= 7.5e-3	RD	= 4e-6	NSUB = 1.85E17
+ kp	= 5e-5	UO	= 400	vt0 = 1.59
+ VMAX = 0	XJ	= 5E-7	KAPPA = 0.15
+ ETA = 1.0E-5	TPG = 1
+ IS	= 0	LD	= 0
+ CGSO = 0	CGDO = 0	CGBO = 0
+NFS = .1E12	DELTA = 0.1)

.MODEL DMIN D (CJO=4030E-12	VJ=.02	M=0.6
+FC=0.5 IS=1E-20 )
.MODEL DMAX D (CJO=2050E-12	VJ=.95	M=0.1
+FC=0.5 is=1e-20 )
.MODEL DBODY D (CJO=1050E-12	VJ=.37	M=0.33
+FC=0.5 IS=1E-15 TT=1.4E-8 N=1 BV=40)
.MODEL RTEMP R (TC1=7E-3 TC2=12E-6)
.ENDS
*********************
*SRC=SI9529P;SI9529P;MOSFETs P;Siliconix;12V 5A 50MOHM 
*SYM=POWMOSP
.SUBCKT SI9529P 4 1 2
M1 3 1 2 2 PMOS W=800176U L=.5U
R1 4 3 20e-3 RTEMP
CGS 1 2 375e-12
CGD 1 6 700e-12
DMIN 4 6 DMIN
DMAX 1 6 DMAX
DBODY 4 2 DBODY

.MODEL PMOS	PMOS ( LEVEL = 3	TOX = 1.75E-8
+ RS	= 12e-3	RD	= 0	NSUB = 3.050E16