******************************************************************
* 
* EPCOS AG
* Bereich Kondensatoren
* EMV-Bauelemente
* D-89520 Heidenheim
* In den Seewiesen 26
*
* Tel. (07321) 326-0	(Zentrale)
*                 -211	Entwicklung EMV-Bauelemente
*                 -293	FAX
* Email wolfgang.sammet@epcos.com
*
******************************************************************
* Bitte lesen Sie die Hinweise in der Datei "Liesmich.txt" .
* Please read the hints in "Readme.txt" .
******************************************************************
*
* 
* Library SIMID.lib 
* Version 2.00 (Tue Dec 14 09:14:04 MET 1999)
* 
******************************************************************
* SPICE-Simulationsdaten für SMD-Induktivitäten
* SPICE simulation data for SMD chokes
* 	SIMID 0402, 0603, 0805, 1008, 1210, 1812, 2220
*	(R) SIMID is a registered trademark of EPCOS AG
******************************************************************
*
.subckt SIMID_BASE1 A B  PARAMS:  R1a=1.e-12 R2a=1.e-12 L1a=1.e-12 
+		C1a=1.e-12 
R1a 2 B {R1a}
R2a A B {R2a}
L1a A 2 {L1a}
C1a A B {C1a}
.ENDS

.subckt SIMID_BASE2 A B  PARAMS:  L1a=1.e-12 R1a=1.e-12 R2a=1.e-12 
+		C1a=1.e-12 Rpa=1.e15 
L1a A 2 {L1a}
R1a 2 3 {R1a}
R2a 11 B {R2a}
C1a A B {C1a}
Rpa A B {Rpa}
.ENDS

.subckt SIMID_BASE3 A B  PARAMS:  L1a=1.e-12 R1a=1.e-12 Rxa=1.e-12 
+		C1a=1.e-12 Rpa=1.e15 
L1a A 2 {L1a}
R1a 2 3 {R1a}
GRxa 3 B LAPLACE {V(3,B)*(1/Rxa)} = {1/sqrt(s/(2*3.14159))}
C1a A B {C1a}
Rpa A B {Rpa}
.ENDS

*
* B82412-A1102-K SIMID 1210-01 (1 uH +-10%)
*
.subckt B82412-A1102-K A B  PARAMS:  R1=5.2150e-01 R2=7.7874e+03 L1=1.104587e-06 
+		C1=7.014943e-13 
X1 A B SIMID_BASE1  PARAMS:  R1a={R1} R2a={R2} L1a={L1} 
+		C1a={C1} 
.ENDS

*
* B82412-A1103-K SIMID 1210-01 (10 uH +-10%)
*
.subckt B82412-A1103-K A B  PARAMS:  R1=6.0080e+00 R2=3.9527e+04 L1=1.230238e-05 
+		C1=6.408880e-13 
X1 A B SIMID_BASE1  PARAMS:  R1a={R1} R2a={R2} L1a={L1} 
+		C1a={C1} 
.ENDS

*
* B82412-A1152-K SIMID 1210-01 (1.5 uH +-10%)
*
.subckt B82412-A1152-K A B  PARAMS:  R1=6.9224e-01 R2=1.0117e+04 L1=1.652250e-06 
+		C1=6.627705e-13 
X1 A B SIMID_BASE1  PARAMS:  R1a={R1} R2a={R2} L1a={L1} 
+		C1a={C1} 
.ENDS

*
* B82412-A1182-K SIMID 1210-01 (1.8 uH +-10%)
*
.subckt B82412-A1182-K A B  PARAMS:  R1=4.5879e+00 R2=3.3102e+04 L1=1.076367e-05 
+		C1=5.732274e-13 
X1 A B SIMID_BASE1  PARAMS:  R1a={R1} R2a={R2} L1a={L1} 
+		C1a={C1} 
.ENDS

*
* B82412-A1222-K SIMID 1210-01 (2.2 uH +-10%)
*
.subckt B82412-A1222-K A B  PARAMS:  R1=9.3090e-01 R2=1.8192e+03 L1=2.408536e-06 
+		C1=6.789557e-13 
X1 A B SIMID_BASE1  PARAMS:  R1a={R1} R2a={R2} L1a={L1} 
+		C1a={C1} 
.ENDS

*
* B82412-A1272-K SIMID 1210-01 (2.7 uH +-10%)
*
.subckt B82412-A1272-K A B  PARAMS:  L1=2.7e-06 R1=0.860 R2=1u 
+		C1=2.89556e-13 Rp=38170.3 
X1 A B SIMID_BASE2  PARAMS:  L1a={L1} R1a={R1} R2a={R2} 
+		C1a={C1} Rpa={Rp} 
.ENDS

*
* B82412-A1332-K SIMID 1210-01 (3.3 uH +-10%)
*
.subckt B82412-A1332-K A B  PARAMS:  R1=1.4929e+00 R2=1.7520e+04 L1=3.591191e-06 
+		C1=6.893570e-13 
X1 A B SIMID_BASE1  PARAMS:  R1a={R1} R2a={R2} L1a={L1} 
+		C1a={C1} 
.ENDS

*
* B82412-A1392-K SIMID 1210-01 (3.9 uH +-10%)
*
.subckt B82412-A1392-K A B  PARAMS:  L1=3.9e-06 R1=1.178 R2=1u 
+		C1=2.88665e-13 Rp=55134.9 
X1 A B SIMID_BASE2  PARAMS:  L1a={L1} R1a={R1} R2a={R2} 
+		C1a={C1} Rpa={Rp} 
.ENDS

*
* B82412-A1472-K SIMID 1210-01 (4.7 uH +-10%)
*
.subckt B82412-A1472-K A B  PARAMS:  R1=2.5077e+00 R2=2.1551e+04 L1=5.081324e-06 
+		C1=6.467248e-13 
X1 A B SIMID_BASE1  PARAMS:  R1a={R1} R2a={R2} L1a={L1} 
+		C1a={C1} 
.ENDS

*
* B82412-A1562-K SIMID 1210-01 (5.6 uH +-10%)
*
.subckt B82412-A1562-K A B  PARAMS:  L1=5.6e-06 R1=2.056 R2=1u 
+		C1=2.8949e-13 Rp=65973.4 
X1 A B SIMID_BASE2  PARAMS:  L1a={L1} R1a={R1} R2a={R2} 
+		C1a={C1} Rpa={Rp} 
.ENDS

*
* B82412-A1682-K SIMID 1210-01 (6.8 uH +-10%)
*
.subckt B82412-A1682-K A B  PARAMS:  R1=4.1119e+00 R2=2.7620e+04 L1=9.165055e-06 
+		C1=5.962527e-13 
X1 A B SIMID_BASE1  PARAMS:  R1a={R1} R2a={R2} L1a={L1} 
+		C1a={C1} 
.ENDS

*
* B82412-A1822-K SIMID 1210-01 (8.2 uH +-10%)
*
.subckt B82412-A1822-K A B  PARAMS:  L1=8.2e-06 R1=3.204 R2=1u 
+		C1=3.08907e-13 Rp=77283.1 
X1 A B SIMID_BASE2  PARAMS:  L1a={L1} R1a={R1} R2a={R2} 
+		C1a={C1} Rpa={Rp} 
.ENDS

*
* B82412-A3100-M SIMID 1210-01 (10 nH +-20%)
*
.subckt B82412-A3100-M A B  PARAMS:  L1=10.0000n R1=66.0000m R2=1u 
+		C1=321.1412f Rp=3.2876k 
X1 A B SIMID_BASE2  PARAMS:  L1a={L1} R1a={R1} R2a={R2} 
+		C1a={C1} Rpa={Rp} 
.ENDS

*
* B82412-A3101-K SIMID 1210-01 (100 nH +-10%)
*
.subckt B82412-A3101-K A B  PARAMS:  R1=2.5374e-01 R2=5.2565e+03 L1=1.067575e-07 
+		C1=7.679390e-13 
X1 A B SIMID_BASE1  PARAMS:  R1a={R1} R2a={R2} L1a={L1} 
+		C1a={C1} 
.ENDS

*
* B82412-A3120-M SIMID 1210-01 (12 nH +-20%)
*
.subckt B82412-A3120-M A B  PARAMS:  L1=12.0000n R1=64.0000m R2=1u 
+		C1=543.8973f Rp=2.1237k 
X1 A B SIMID_BASE2  PARAMS:  L1a={L1} R1a={R1} R2a={R2} 
+		C1a={C1} Rpa={Rp} 
.ENDS

*
* B82412-A3121-K SIMID 1210-01 (120 nH +-10%)
*
.subckt B82412-A3121-K A B  PARAMS:  R1=2.8666e-01 R2=1.0263e+04 L1=2.871989e-07 
+		C1=3.422262e-13 
X1 A B SIMID_BASE1  PARAMS:  R1a={R1} R2a={R2} L1a={L1} 
+		C1a={C1} 
.ENDS

*
* B82412-A3150-M SIMID 1210-01 (15 nH +-20%)
*
.subckt B82412-A3150-M A B  PARAMS:  L1=15.0000n R1=98.0000m R2=1u 
+		C1=426.3119f Rp=2.3983k 
X1 A B SIMID_BASE2  PARAMS:  L1a={L1} R1a={R1} R2a={R2} 
+		C1a={C1} Rpa={Rp} 
.ENDS

*
* B82412-A3151-K SIMID 1210-01 (150 nH +-10%)
*
.subckt B82412-A3151-K A B  PARAMS:  R1=3.1966e-01 R2=1.0301e+04 L1=2.766275e-07 
+		C1=4.698149e-13 
X1 A B SIMID_BASE1  PARAMS:  R1a={R1} R2a={R2} L1a={L1} 
+		C1a={C1} 
.ENDS

*
* B82412-A3180-M SIMID 1210-01 (18 nH +-20%)
*
.subckt B82412-A3180-M A B  PARAMS:  L1=18.0000n R1=95.0000m R2=1u 
+		C1=364.3905f Rp=2.8972k 
X1 A B SIMID_BASE2  PARAMS:  L1a={L1} R1a={R1} R2a={R2} 
+		C1a={C1} Rpa={Rp} 
.ENDS

*
* B82412-A3181-K SIMID 1210-01 (180 nH +-10%)
*
.subckt B82412-A3181-K A B  PARAMS:  R1=3.6156e-01 R2=1.1426e+04 L1=3.727388e-07 
+		C1=3.862542e-13 
X1 A B SIMID_BASE1  PARAMS:  R1a={R1} R2a={R2} L1a={L1} 
+		C1a={C1} 
.ENDS

*
* B82412-A3220-K SIMID 1210-01 (22 nH +-10%)
*
.subckt B82412-A3220-K A B  PARAMS:  R1=1.1445e-01 R2=3.6283e+03 L1=2.861387e-08 
+		C1=6.360389e-13 
X1 A B SIMID_BASE1  PARAMS:  R1a={R1} R2a={R2} L1a={L1} 
+		C1a={C1} 
.ENDS

*
* B82412-A3221-K SIMID 1210-01 (220 nH +-10%)
*
.subckt B82412-A3221-K A B  PARAMS:  R1=3.8155e-01 R2=1.3070e+04 L1=5.271555e-07 
+		C1=3.280151e-13 
X1 A B SIMID_BASE1  PARAMS:  R1a={R1} R2a={R2} L1a={L1} 
+		C1a={C1} 
.ENDS

*
* B82412-A3270-K SIMID 1210-01 (27 nH +-10%)
*
.subckt B82412-A3270-K A B  PARAMS:  L1=2.7e-08 R1=0.128 R2=1u 
+		C1=2.3454e-13 Rp=4241.15 
X1 A B SIMID_BASE2  PARAMS:  L1a={L1} R1a={R1} R2a={R2} 
+		C1a={C1} Rpa={Rp} 
.ENDS

*
* B82412-A3271-K SIMID 1210-01 (270 nH +-10%)
*
.subckt B82412-A3271-K A B  PARAMS:  L1=2.7e-07 R1=0.410 R2=1u 
+		C1=2.88754e-13 Rp=12087.3 
X1 A B SIMID_BASE2  PARAMS:  L1a={L1} R1a={R1} R2a={R2} 
+		C1a={C1} Rpa={Rp} 
.ENDS

*
* B82412-A3330-K SIMID 1210-01 (33 nH +-10%)
*
.subckt B82412-A3330-K A B  PARAMS:  L1=33.0000n R1=129.0000m R2=1u 
+		C1=126.2319f Rp=27.5611k 
X1 A B SIMID_BASE2  PARAMS:  L1a={L1} R1a={R1} R2a={R2} 
+		C1a={C1} Rpa={Rp} 
.ENDS

*
* B82412-A3331-K SIMID 1210-01 (330 nH +-10%)
*
.subckt B82412-A3331-K A B  PARAMS:  R1=5.6259e-01 R2=1.1361e+04 L1=4.529537e-07 
+		C1=6.196123e-13 
X1 A B SIMID_BASE1  PARAMS:  R1a={R1} R2a={R2} L1a={L1} 
+		C1a={C1} 
.ENDS

*
* B82412-A3390-K SIMID 1210-01 (39 nH +-10%)
*
.subckt B82412-A3390-K A B  PARAMS:  L1=39.0000n R1=130.0000m R2=1u 
+		C1=507.4154f Rp=36.9856x 
X1 A B SIMID_BASE2  PARAMS:  L1a={L1} R1a={R1} R2a={R2} 
+		C1a={C1} Rpa={Rp} 
.ENDS

*
* B82412-A3391-K SIMID 1210-01 (390 nH +-10%)
*
.subckt B82412-A3391-K A B  PARAMS:  R1=6.4456e-01 R2=1.9624e+04 L1=9.453292e-07 
+		C1=2.993246e-13 
X1 A B SIMID_BASE1  PARAMS:  R1a={R1} R2a={R2} L1a={L1} 
+		C1a={C1} 
.ENDS

*
* B82412-A3470-K SIMID 1210-01 (47 nH +-10%)
*
.subckt B82412-A3470-K A B  PARAMS:  L1=4.7e-08 R1=0.159 R2=1u 
+		C1=2.10525e-13 Rp=5906.19 
X1 A B SIMID_BASE2  PARAMS:  L1a={L1} R1a={R1} R2a={R2} 
+		C1a={C1} Rpa={Rp} 
.ENDS

*
* B82412-A3471-K SIMID 1210-01 (470 nH +-10%)
*
.subckt B82412-A3471-K A B  PARAMS:  R1=9.1319e-01 R2=1.5034e+04 L1=6.438991e-07 
+		C1=5.984396e-13 
X1 A B SIMID_BASE1  PARAMS:  R1a={R1} R2a={R2} L1a={L1} 
+		C1a={C1} 
.ENDS

*
* B82412-A3560-K SIMID 1210-01 (56 nH +-10%)
*
.subckt B82412-A3560-K A B  PARAMS:  L1=5.6e-08 R1=0.158 R2=1u 
+		C1=2.30779e-13 Rp=6157.52 
X1 A B SIMID_BASE2  PARAMS:  L1a={L1} R1a={R1} R2a={R2} 
+		C1a={C1} Rpa={Rp} 
.ENDS

*
* B82412-A3561-K SIMID 1210-01 (560 nH +-10%)
*
.subckt B82412-A3561-K A B  PARAMS:  R1=1.0147e+00 R2=1.3162e+04 L1=6.656740e-07 
+		C1=6.875097e-13 
X1 A B SIMID_BASE1  PARAMS:  R1a={R1} R2a={R2} L1a={L1} 
+		C1a={C1} 
.ENDS

*
* B82412-A3680-K SIMID 1210-01 (68 nH +-10%)
*
.subckt B82412-A3680-K A B  PARAMS:  R1=1.6792e-01 R2=1.0041e+04 L1=9.229753e-08 
+		C1=1.316218e-13 
X1 A B SIMID_BASE1  PARAMS:  R1a={R1} R2a={R2} L1a={L1} 
+		C1a={C1} 
.ENDS

*
* B82412-A3681-K SIMID 1210-01 (680 nH +-10%)
*
.subckt B82412-A3681-K A B  PARAMS:  R1=1.1207e+00 R2=1.7891e+04 L1=1.041300e-06 
+		C1=5.101881e-13 
X1 A B SIMID_BASE1  PARAMS:  R1a={R1} R2a={R2} L1a={L1} 
+		C1a={C1} 
.ENDS

*
* B82412-A3820-K SIMID 1210-01 (82 nH +-10%)
*
.subckt B82412-A3820-K A B  PARAMS:  R1=2.1761e-01 R2=3.8575e+03 L1=8.660117e-08 
+		C1=8.239059e-13 
X1 A B SIMID_BASE1  PARAMS:  R1a={R1} R2a={R2} L1a={L1} 
+		C1a={C1} 
.ENDS

*
* B82412-A3821-K SIMID 1210-01 (820 nH +-10%)
*
.subckt B82412-A3821-K A B  PARAMS:  R1=1.7382e+00 R2=1.9164e+04 L1=1.640801e-06 
+		C1=4.120274e-13 
X1 A B SIMID_BASE1  PARAMS:  R1a={R1} R2a={R2} L1a={L1} 
+		C1a={C1} 
.ENDS

*
* B82422-A1102-J100 SIMID 1210-100 (1 uH +-5%)
*
.subckt B82422-A1102-J100 A B  PARAMS:  R1=4.8704e-01 R2=4.0571e+03 L1=1.002260e-06 
+		C1=7.465309e-13 
X1 A B SIMID_BASE1  PARAMS:  R1a={R1} R2a={R2} L1a={L1} 
+		C1a={C1} 
.ENDS

*
* B82422-A1102-K SIMID 1210-A (1 uH +-10%)
*
.subckt B82422-A1102-K A B  PARAMS:  R1=4.9790e+00 R2=5.2854e+03 L1=9.566011e-07 
+		C1=8.100155e-13 
X1 A B SIMID_BASE1  PARAMS:  R1a={R1} R2a={R2} L1a={L1} 
+		C1a={C1} 
.ENDS

*
* B82422-A1103-J SIMID 1210-A (10 uH +-5%)
*
.subckt B82422-A1103-J A B  PARAMS:  R1=1.3867e+00 R2=2.0169e+04 L1=1.238189e-05 
+		C1=1.124222e-12 
X1 A B SIMID_BASE1  PARAMS:  R1a={R1} R2a={R2} L1a={L1} 
+		C1a={C1} 
.ENDS

*
* B82422-A1103-J100 SIMID 1210-100 (10 uH +-5%)
*
.subckt B82422-A1103-J100 A B  PARAMS:  R1=1.2889e+00 R2=1.3070e+04 L1=1.209652e-05 
+		C1=2.636214e-12 
X1 A B SIMID_BASE1  PARAMS:  R1a={R1} R2a={R2} L1a={L1} 
+		C1a={C1} 
.ENDS

*
* B82422-A1104-J SIMID 1210-A (100 uH +-5%)
*
.subckt B82422-A1104-J A B  PARAMS:  R1=1.0290e+01 R2=6.2209e+04 L1=1.381614e-04 
+		C1=1.919790e-12 
X1 A B SIMID_BASE1  PARAMS:  R1a={R1} R2a={R2} L1a={L1} 
+		C1a={C1} 
.ENDS

*
* B82422-A1104-K100 SIMID 1210-100 (100 uH +-10%)
*
.subckt B82422-A1104-K100 A B  PARAMS:  R1=1.0151e+01 R2=6.3538e+04 L1=1.461766e-04 
+		C1=1.900037e-12 
X1 A B SIMID_BASE1  PARAMS:  R1a={R1} R2a={R2} L1a={L1} 
+		C1a={C1} 
.ENDS

*
* B82422-A1122-J100 SIMID 1210-100 (1.2 uH +-5%)
*
.subckt B82422-A1122-J100 A B  PARAMS:  R1=5.6961e-01 R2=4.9947e+03 L1=1.170843e-06 
+		C1=7.661360e-13 
X1 A B SIMID_BASE1  PARAMS:  R1a={R1} R2a={R2} L1a={L1} 
+		C1a={C1} 
.ENDS

*
* B82422-A1122-K SIMID 1210-A (1.2 uH +-10%)
*
.subckt B82422-A1122-K A B  PARAMS:  R1=5.2190e-01 R2=6.4043e+03 L1=1.236866e-06 
+		C1=7.836129e-13 
X1 A B SIMID_BASE1  PARAMS:  R1a={R1} R2a={R2} L1a={L1} 
+		C1a={C1} 
.ENDS

*
* B82422-A1123-J SIMID 1210-A (12 uH +-5%)
*
.subckt B82422-A1123-J A B  PARAMS:  R1=1.5110e+00 R2=2.0491e+04 L1=1.431857e-05 
+		C1=1.281566e-12 
X1 A B SIMID_BASE1  PARAMS:  R1a={R1} R2a={R2} L1a={L1} 
+		C1a={C1} 
.ENDS

*
* B82422-A1123-J100 SIMID 1210-100 (12 uH +-5%)
*
.subckt B82422-A1123-J100 A B  PARAMS:  R1=1.4761e+00 R2=1.2728e+04 L1=1.333547e-05 
+		C1=4.155591e-12 
X1 A B SIMID_BASE1  PARAMS:  R1a={R1} R2a={R2} L1a={L1} 
+		C1a={C1} 
.ENDS

*
* B82422-A1152-J100 SIMID 1210-100 (1.5 uH +-5%)
*
.subckt B82422-A1152-J100 A B  PARAMS:  R1=6.3744e-01 R2=5.8117e+03 L1=1.598902e-06 
+		C1=7.145442e-13 
X1 A B SIMID_BASE1  PARAMS:  R1a={R1} R2a={R2} L1a={L1} 
+		C1a={C1} 
.ENDS

*
* B82422-A1152-K SIMID 1210-A (1.5 uH +-10%)
*
.subckt B82422-A1152-K A B  PARAMS:  R1=5.5727e-01 R2=7.2761e+03 L1=1.750671e-06 
+		C1=6.775186e-13 
X1 A B SIMID_BASE1  PARAMS:  R1a={R1} R2a={R2} L1a={L1} 
+		C1a={C1} 
.ENDS

*
* B82422-A1153-J SIMID 1210-A (15 uH +-5%)
*
.subckt B82422-A1153-J A B  PARAMS:  R1=1.7145e+00 R2=2.1706e+04 L1=1.868467e-05 
+		C1=1.486468e-12 
X1 A B SIMID_BASE1  PARAMS:  R1a={R1} R2a={R2} L1a={L1} 
+		C1a={C1} 
.ENDS

*
* B82422-A1153-J100 SIMID 1210-100 (15 uH +-5%)
*
.subckt B82422-A1153-J100 A B  PARAMS:  R1=1.6371e+00 R2=1.4475e+04 L1=1.846714e-05 
+		C1=3.290333e-12 
X1 A B SIMID_BASE1  PARAMS:  R1a={R1} R2a={R2} L1a={L1} 
+		C1a={C1} 
.ENDS

*
* B82422-A1182-J100 SIMID 1210-100 (1.8 uH +-5%)
*
.subckt B82422-A1182-J100 A B  PARAMS:  R1=9.2026e-01 R2=7.0011e+03 L1=2.022548e-06 
+		C1=7.222299e-13 
X1 A B SIMID_BASE1  PARAMS:  R1a={R1} R2a={R2} L1a={L1} 
+		C1a={C1} 
.ENDS

*
* B82422-A1182-K SIMID 1210-A (1.8 uH +-10%)
*
.subckt B82422-A1182-K A B  PARAMS:  R1=7.9586e-01 R2=8.6321e+03 L1=1.901545e-06 
+		C1=7.408458e-13 
X1 A B SIMID_BASE1  PARAMS:  R1a={R1} R2a={R2} L1a={L1} 
+		C1a={C1} 
.ENDS

*
* B82422-A1183-J SIMID 1210-A (18 uH +-5%)
*
.subckt B82422-A1183-J A B  PARAMS:  R1=1.9306e+00 R2=2.7160e+04 L1=2.243404e-05 
+		C1=1.129099e-12 
X1 A B SIMID_BASE1  PARAMS:  R1a={R1} R2a={R2} L1a={L1} 
+		C1a={C1} 
.ENDS

*
* B82422-A1183-J100 SIMID 1210-100 (18 uH +-5%)
*
.subckt B82422-A1183-J100 A B  PARAMS:  R1=1.8522e+00 R2=1.6121e+04 L1=2.417057e-05 
+		C1=3.470194e-12 
X1 A B SIMID_BASE1  PARAMS:  R1a={R1} R2a={R2} L1a={L1} 
+		C1a={C1} 
.ENDS

*
* B82422-A1222-J100 SIMID 1210-100 (2.2 uH +-5%)
*
.subckt B82422-A1222-J100 A B  PARAMS:  R1=1.0300e+00 R2=7.5946e+03 L1=2.215742e-06 
+		C1=7.380325e-13 
X1 A B SIMID_BASE1  PARAMS:  R1a={R1} R2a={R2} L1a={L1} 
+		C1a={C1} 
.ENDS

*
* B82422-A1222-K SIMID 1210-A (2.2 uH +-10%)
*
.subckt B82422-A1222-K A B  PARAMS:  R1=9.0184e-01 R2=9.5031e+03 L1=2.327154e-06 
+		C1=8.255766e-13 
X1 A B SIMID_BASE1  PARAMS:  R1a={R1} R2a={R2} L1a={L1} 
+		C1a={C1} 
.ENDS

*
* B82422-A1223-J SIMID 1210-A (22 uH +-5%)
*
.subckt B82422-A1223-J A B  PARAMS:  R1=2.4024e+00 R2=2.9284e+04 L1=2.873034e-05 
+		C1=1.217029e-12 
X1 A B SIMID_BASE1  PARAMS:  R1a={R1} R2a={R2} L1a={L1} 
+		C1a={C1} 
.ENDS

*
* B82422-A1223-J100 SIMID 1210-100 (22 uH +-5%)
*
.subckt B82422-A1223-J100 A B  PARAMS:  R1=2.9360e+00 R2=1.8537e+04 L1=2.993733e-05 
+		C1=3.153956e-12 
X1 A B SIMID_BASE1  PARAMS:  R1a={R1} R2a={R2} L1a={L1} 
+		C1a={C1} 
.ENDS

*
* B82422-A1272-J100 SIMID 1210-100 (2.7 uH +-5%)
*
.subckt B82422-A1272-J100 A B  PARAMS:  R1=1.3171e+00 R2=9.1784e+03 L1=2.860290e-06 
+		C1=7.523619e-13 
X1 A B SIMID_BASE1  PARAMS:  R1a={R1} R2a={R2} L1a={L1} 
+		C1a={C1} 
.ENDS

*
* B82422-A1272-K SIMID 1210-A (2.7 uH +-10%)
*
.subckt B82422-A1272-K A B  PARAMS:  R1=1.0609e+00 R2=1.0910e+04 L1=2.779638e-06 
+		C1=9.960814e-13 
X1 A B SIMID_BASE1  PARAMS:  R1a={R1} R2a={R2} L1a={L1} 
+		C1a={C1} 
.ENDS

*
* B82422-A1273-J SIMID 1210-A (27 uH +-5%)
*
.subckt B82422-A1273-J A B  PARAMS:  R1=3.3678e+00 R2=3.2507e+04 L1=3.438328e-05 
+		C1=1.280248e-12 
X1 A B SIMID_BASE1  PARAMS:  R1a={R1} R2a={R2} L1a={L1} 
+		C1a={C1} 
.ENDS

*
* B82422-A1273-K100 SIMID 1210-100 (27 uH +-10%)
*
.subckt B82422-A1273-K100 A B  PARAMS:  R1=3.2361e+00 R2=3.0768e+04 L1=3.411389e-05 
+		C1=1.414843e-12 
X1 A B SIMID_BASE1  PARAMS:  R1a={R1} R2a={R2} L1a={L1} 
+		C1a={C1} 
.ENDS

*
* B82422-A1332-J100 SIMID 1210-100 (3.3 uH +-5%)
*
.subckt B82422-A1332-J100 A B  PARAMS:  R1=1.7345e+00 R2=1.0797e+04 L1=3.344204e-06 
+		C1=7.402697e-13 
X1 A B SIMID_BASE1  PARAMS:  R1a={R1} R2a={R2} L1a={L1} 
+		C1a={C1} 
.ENDS

*
* B82422-A1332-K SIMID 1210-A (3.3 uH +-10%)
*
.subckt B82422-A1332-K A B  PARAMS:  R1=1.4897e+00 R2=1.2640e+04 L1=3.239639e-06 
+		C1=8.227773e-13 
X1 A B SIMID_BASE1  PARAMS:  R1a={R1} R2a={R2} L1a={L1} 
+		C1a={C1} 
.ENDS

*
* B82422-A1333-J SIMID 1210-A (33 uH +-5%)
*
.subckt B82422-A1333-J A B  PARAMS:  R1=3.5918e+00 R2=3.2886e+04 L1=4.484662e-05 
+		C1=1.628955e-12 
X1 A B SIMID_BASE1  PARAMS:  R1a={R1} R2a={R2} L1a={L1} 
+		C1a={C1} 
.ENDS

*
* B82422-A1333-J100 SIMID 1210-100 (33 uH +-5%)
*
.subckt B82422-A1333-J100 A B  PARAMS:  R1=4.3441e+00 R2=2.3028e+04 L1=4.589502e-05 
+		C1=3.053035e-12 
X1 A B SIMID_BASE1  PARAMS:  R1a={R1} R2a={R2} L1a={L1} 
+		C1a={C1} 
.ENDS

*
* B82422-A1333-K100 SIMID 1210-100 (33 uH +-10%)
*
.subckt B82422-A1333-K100 A B  PARAMS:  R1=3.6401e+00 R2=5.6834e+04 L1=1.320805e-03 
+		C1=1.656115e-32 
X1 A B SIMID_BASE1  PARAMS:  R1a={R1} R2a={R2} L1a={L1} 
+		C1a={C1} 
.ENDS

*
* B82422-A1392-J100 SIMID 1210-100 (3.9 uH +-5%)
*
.subckt B82422-A1392-J100 A B  PARAMS:  R1=2.1598e+00 R2=1.2452e+04 L1=4.290879e-06 
+		C1=6.977785e-13 
X1 A B SIMID_BASE1  PARAMS:  R1a={R1} R2a={R2} L1a={L1} 
+		C1a={C1} 
.ENDS

*
* B82422-A1392-K SIMID 1210-A (3.9 uH +-10%)
*
.subckt B82422-A1392-K A B  PARAMS:  R1=1.6452e+00 R2=1.4978e+04 L1=4.773825e-06 
+		C1=7.095772e-13 
X1 A B SIMID_BASE1  PARAMS:  R1a={R1} R2a={R2} L1a={L1} 
+		C1a={C1} 
.ENDS

*
* B82422-A1393-J SIMID 1210-A (39 uH +-5%)
*
.subckt B82422-A1393-J A B  PARAMS:  R1=5.9347e+00 R2=3.9692e+04 L1=4.326247e-05 
+		C1=2.030162e-12 
X1 A B SIMID_BASE1  PARAMS:  R1a={R1} R2a={R2} L1a={L1} 
+		C1a={C1} 
.ENDS

*
* B82422-A1393-K100 SIMID 1210-100 (39 uH +-10%)
*
.subckt B82422-A1393-K100 A B  PARAMS:  R1=5.7961e+00 R2=3.7124e+04 L1=4.963973e-05 
+		C1=1.852718e-12 
X1 A B SIMID_BASE1  PARAMS:  R1a={R1} R2a={R2} L1a={L1} 
+		C1a={C1} 
.ENDS

*
* B82422-A1472-J100 SIMID 1210-100 (4.7 uH +-5%)
*
.subckt B82422-A1472-J100 A B  PARAMS:  R1=2.7398e+00 R2=1.3963e+04 L1=4.948024e-06 
+		C1=7.107393e-13 
X1 A B SIMID_BASE1  PARAMS:  R1a={R1} R2a={R2} L1a={L1} 
+		C1a={C1} 
.ENDS

*
* B82422-A1472-K SIMID 1210-A (4.7 uH +-10%)
*
.subckt B82422-A1472-K A B  PARAMS:  R1=2.5147e+00 R2=1.7310e+04 L1=5.169414e-06 
+		C1=7.797255e-13 
X1 A B SIMID_BASE1  PARAMS:  R1a={R1} R2a={R2} L1a={L1} 
+		C1a={C1} 
.ENDS

*
* B82422-A1473-J SIMID 1210-A (47 uH +-5%)
*
.subckt B82422-A1473-J A B  PARAMS:  R1=6.5879e+00 R2=4.1553e+04 L1=6.438101e-05 
+		C1=1.971882e-12 
X1 A B SIMID_BASE1  PARAMS:  R1a={R1} R2a={R2} L1a={L1} 
+		C1a={C1} 
.ENDS

*
* B82422-A1473-K100 SIMID 1210-100 (47 uH +-10%)
*
.subckt B82422-A1473-K100 A B  PARAMS:  R1=6.4229e+00 R2=3.7583e+04 L1=5.784480e-05 
+		C1=2.194696e-12 
X1 A B SIMID_BASE1  PARAMS:  R1a={R1} R2a={R2} L1a={L1} 
+		C1a={C1} 
.ENDS

*
* B82422-A1562-J100 SIMID 1210-100 (5.6 uH +-5%)
*
.subckt B82422-A1562-J100 A B  PARAMS:  R1=3.1843e+00 R2=1.6937e+04 L1=5.730579e-06 
+		C1=7.557751e-13 
X1 A B SIMID_BASE1  PARAMS:  R1a={R1} R2a={R2} L1a={L1} 
+		C1a={C1} 
.ENDS

*
* B82422-A1562-K SIMID 1210-A (5.6 uH +-10%)
*
.subckt B82422-A1562-K A B  PARAMS:  R1=2.8228e+00 R2=1.9102e+04 L1=5.973651e-06 
+		C1=8.440086e-13 
X1 A B SIMID_BASE1  PARAMS:  R1a={R1} R2a={R2} L1a={L1} 
+		C1a={C1} 
.ENDS

*
* B82422-A1563-J SIMID 1210-A (56 uH +-5%)
*
.subckt B82422-A1563-J A B  PARAMS:  R1=5.8992e+00 R2=4.5338e+04 L1=6.726417e-05 
+		C1=1.721296e-12 
X1 A B SIMID_BASE1  PARAMS:  R1a={R1} R2a={R2} L1a={L1} 
+		C1a={C1} 
.ENDS

*
* B82422-A1563-K100 SIMID 1210-100 (56 uH +-10%)
*
.subckt B82422-A1563-K100 A B  PARAMS:  R1=5.9248e+00 R2=4.6918e+04 L1=6.959371e-05 
+		C1=1.663678e-12 
X1 A B SIMID_BASE1  PARAMS:  R1a={R1} R2a={R2} L1a={L1} 
+		C1a={C1} 
.ENDS

*
* B82422-A1682-J100 SIMID 1210-100 (6.8 uH +-5%)
*
.subckt B82422-A1682-J100 A B  PARAMS:  R1=3.9473e+00 R2=1.8382e+04 L1=6.832940e-06 
+		C1=7.997566e-13 
X1 A B SIMID_BASE1  PARAMS:  R1a={R1} R2a={R2} L1a={L1} 
+		C1a={C1} 
.ENDS

*
* B82422-A1682-K SIMID 1210-A (6.8 uH +-10%)
*
.subckt B82422-A1682-K A B  PARAMS:  R1=1.8476e+00 R2=1.8538e+04 L1=7.588241e-06 
+		C1=1.001371e-12 
X1 A B SIMID_BASE1  PARAMS:  R1a={R1} R2a={R2} L1a={L1} 
+		C1a={C1} 
.ENDS

*
* B82422-A1683-K SIMID 1210-A (68 uH +-10%)
*
.subckt B82422-A1683-K A B  PARAMS:  R1=6.6213e+00 R2=5.4101e+04 L1=8.342433e-05 
+		C1=1.453274e-12 
X1 A B SIMID_BASE1  PARAMS:  R1a={R1} R2a={R2} L1a={L1} 
+		C1a={C1} 
.ENDS

*
* B82422-A1683-K100 SIMID 1210-100 (68 uH +-10%)
*
.subckt B82422-A1683-K100 A B  PARAMS:  R1=6.6218e+00 R2=5.4015e+04 L1=8.212698e-05 
+		C1=1.476231e-12 
X1 A B SIMID_BASE1  PARAMS:  R1a={R1} R2a={R2} L1a={L1} 
+		C1a={C1} 
.ENDS

*
* B82422-A1822-K SIMID 1210-A (8.2 uH +-10%)
*
.subckt B82422-A1822-K A B  PARAMS:  R1=3.7071e+00 R2=2.4592e+04 L1=8.168000e-06 
+		C1=8.657892e-13 
X1 A B SIMID_BASE1  PARAMS:  R1a={R1} R2a={R2} L1a={L1} 
+		C1a={C1} 
.ENDS

*
* B82422-A1823-J SIMID 1210-A (82 uH +-5%)
*
.subckt B82422-A1823-J A B  PARAMS:  R1=9.0155e+00 R2=5.6083e+04 L1=1.186228e-04 
+		C1=1.947471e-12 
X1 A B SIMID_BASE1  PARAMS:  R1a={R1} R2a={R2} L1a={L1} 
+		C1a={C1} 
.ENDS

*
* B82422-A1823-K100 SIMID 1210-100 (82 uH +-10%)
*
.subckt B82422-A1823-K100 A B  PARAMS:  R1=8.8740e+00 R2=5.5893e+04 L1=1.091097e-04 
+		C1=1.844064e-12 
X1 A B SIMID_BASE1  PARAMS:  R1a={R1} R2a={R2} L1a={L1} 
+		C1a={C1} 
.ENDS

*
* B82422-A3100-J100 SIMID 1210-100 (10 nH +-5%)
*
.subckt B82422-A3100-J100 A B  PARAMS:  R1=7.5696e-02 R2=1.9424e+03 L1=9.001581e-09 
+		C1=9.612170e-13 
X1 A B SIMID_BASE1  PARAMS:  R1a={R1} R2a={R2} L1a={L1} 
+		C1a={C1} 
.ENDS

*
* B82422-A3101-J100 SIMID 1210-100 (100 nH +-5%)
*
.subckt B82422-A3101-J100 A B  PARAMS:  R1=2.8575e-01 R2=7.7687e+03 L1=1.599663e-07 
+		C1=5.125033e-13 
X1 A B SIMID_BASE1  PARAMS:  R1a={R1} R2a={R2} L1a={L1} 
+		C1a={C1} 
.ENDS

*
* B82422-A3101-K SIMID 1210-A (100 nH +-10%)
*
.subckt B82422-A3101-K A B  PARAMS:  R1=2.4447e-01 R2=7.4770e+03 L1=1.655668e-07 
+		C1=5.510017e-13 
X1 A B SIMID_BASE1  PARAMS:  R1a={R1} R2a={R2} L1a={L1} 
+		C1a={C1} 
.ENDS

*
* B82422-A3120-J100 SIMID 1210-100 (12 nH +-5%)
*
.subckt B82422-A3120-J100 A B  PARAMS:  R1=7.7765e-02 R2=5.4632e+03 L1=5.043649e-08 
+		C1=1.980773e-13 
X1 A B SIMID_BASE1  PARAMS:  R1a={R1} R2a={R2} L1a={L1} 
+		C1a={C1} 
.ENDS

*
* B82422-A3121-K SIMID 1210-A (120 nH +-10%)
*
.subckt B82422-A3121-K A B  PARAMS:  R1=2.7277e-01 R2=5.1986e+03 L1=1.315832e-07 
+		C1=7.761512e-13 
X1 A B SIMID_BASE1  PARAMS:  R1a={R1} R2a={R2} L1a={L1} 
+		C1a={C1} 
.ENDS

*
* B82422-A3121-K100 SIMID 1210-100 (120 nH +-10%)
*
.subckt B82422-A3121-K100 A B  PARAMS:  R1=3.9786e-01 R2=6.2893e+03 L1=1.621024e-07 
+		C1=1.463121e-13 
X1 A B SIMID_BASE1  PARAMS:  R1a={R1} R2a={R2} L1a={L1} 
+		C1a={C1} 
.ENDS

*
* B82422-A3150-J100 SIMID 1210-100 (15 nH +-5%)
*
.subckt B82422-A3150-J100 A B  PARAMS:  R1=1.0047e-01 R2=1.7808e+03 L1=1.616171e-08 
+		C1=7.516757e-13 
X1 A B SIMID_BASE1  PARAMS:  R1a={R1} R2a={R2} L1a={L1} 
+		C1a={C1} 
.ENDS

*
* B82422-A3150-K SIMID 1210-A (15 nH +-10%)
*
.subckt B82422-A3150-K A B  PARAMS:  R1=9.7712e-02 R2=2.7052e+03 L1=2.383918e-08 
+		C1=5.095966e-13 
X1 A B SIMID_BASE1  PARAMS:  R1a={R1} R2a={R2} L1a={L1} 
+		C1a={C1} 
.ENDS

*
* B82422-A3151-J100 SIMID 1210-100 (150 nH +-5%)
*
.subckt B82422-A3151-J100 A B  PARAMS:  R1=3.3276e-01 R2=8.4687e+03 L1=2.948099e-07 
+		C1=4.069955e-13 
X1 A B SIMID_BASE1  PARAMS:  R1a={R1} R2a={R2} L1a={L1} 
+		C1a={C1} 
.ENDS

*
* B82422-A3151-K SIMID 1210-A (150 nH +-10%)
*
.subckt B82422-A3151-K A B  PARAMS:  R1=3.1938e-01 R2=5.7026e+03 L1=1.550723e-07 
+		C1=8.666715e-13 
X1 A B SIMID_BASE1  PARAMS:  R1a={R1} R2a={R2} L1a={L1} 
+		C1a={C1} 
.ENDS

*
* B82422-A3180-J100 SIMID 1210-100 (18 nH +-5%)
*
.subckt B82422-A3180-J100 A B  PARAMS:  R1=1.0022e-01 R2=4.1656e+03 L1=3.450285e-08 
+		C1=4.251107e-13 
X1 A B SIMID_BASE1  PARAMS:  R1a={R1} R2a={R2} L1a={L1} 
+		C1a={C1} 
.ENDS

*
* B82422-A3181-K SIMID 1210-A (180 nH +-10%)
*
.subckt B82422-A3181-K A B  PARAMS:  R1=1.2800e+00 R2=8.9019e+03 L1=2.562071e-07 
+		C1=6.034466e-13 
X1 A B SIMID_BASE1  PARAMS:  R1a={R1} R2a={R2} L1a={L1} 
+		C1a={C1} 
.ENDS

*
* B82422-A3181-K100 SIMID 1210-100 (180 nH +-10%)
*
.subckt B82422-A3181-K100 A B  PARAMS:  R1=3.9770e-01 R2=8.7073e+03 L1=2.502382e-07 
+		C1=1.154595e-13 
X1 A B SIMID_BASE1  PARAMS:  R1a={R1} R2a={R2} L1a={L1} 
+		C1a={C1} 
.ENDS

*
* B82422-A3220-J100 SIMID 1210-100 (22 nH +-5%)
*
.subckt B82422-A3220-J100 A B  PARAMS:  R1=1.0071e-01 R2=1.6026e+03 L1=1.676541e-08 
+		C1=1.172932e-12 
X1 A B SIMID_BASE1  PARAMS:  R1a={R1} R2a={R2} L1a={L1} 
+		C1a={C1} 
.ENDS

*
* B82422-A3220-K SIMID 1210-A (22 nH +-10%)
*
.subckt B82422-A3220-K A B  PARAMS:  R1=1.2237e-01 R2=4.1811e+03 L1=4.036548e-08 
+		C1=4.342230e-13 
X1 A B SIMID_BASE1  PARAMS:  R1a={R1} R2a={R2} L1a={L1} 
+		C1a={C1} 
.ENDS

*
* B82422-A3221-J100 SIMID 1210-100 (220 nH +-5%)
*
.subckt B82422-A3221-J100 A B  PARAMS:  R1=5.8748e-01 R2=9.2597e+03 L1=3.730769e-07 
+		C1=4.817902e-13 
X1 A B SIMID_BASE1  PARAMS:  R1a={R1} R2a={R2} L1a={L1} 
+		C1a={C1} 
.ENDS

*
* B82422-A3221-K SIMID 1210-A (220 nH +-10%)
*
.subckt B82422-A3221-K A B  PARAMS:  R1=6.0177e-01 R2=6.9607e+03 L1=2.731780e-07 
+		C1=7.425620e-13 
X1 A B SIMID_BASE1  PARAMS:  R1a={R1} R2a={R2} L1a={L1} 
+		C1a={C1} 
.ENDS

*
* B82422-A3270-J100 SIMID 1210-100 (27 nH +-5%)
*
.subckt B82422-A3270-J100 A B  PARAMS:  R1=1.2193e-01 R2=1.8239e+03 L1=2.225627e-08 
+		C1=1.041492e-12 
X1 A B SIMID_BASE1  PARAMS:  R1a={R1} R2a={R2} L1a={L1} 
+		C1a={C1} 
.ENDS

*
* B82422-A3270-K SIMID 1210-A (27 nH +-10%)
*
.subckt B82422-A3270-K A B  PARAMS:  R1=1.1724e-01 R2=3.3935e+03 L1=3.382370e-08 
+		C1=6.853106e-13 
X1 A B SIMID_BASE1  PARAMS:  R1a={R1} R2a={R2} L1a={L1} 
+		C1a={C1} 
.ENDS

*
* B82422-A3271-J100 SIMID 1210-100 (270 nH +-5%)
*
.subckt B82422-A3271-J100 A B  PARAMS:  R1=6.5302e-01 R2=7.4361e+03 L1=2.754001e-07 
+		C1=7.974952e-13 
X1 A B SIMID_BASE1  PARAMS:  R1a={R1} R2a={R2} L1a={L1} 
+		C1a={C1} 
.ENDS

*
* B82422-A3271-K SIMID 1210-A (270 nH +-10%)
*
.subckt B82422-A3271-K A B  PARAMS:  R1=1.0354e+00 R2=8.3245e+03 L1=2.890272e-07 
+		C1=7.319418e-13 
X1 A B SIMID_BASE1  PARAMS:  R1a={R1} R2a={R2} L1a={L1} 
+		C1a={C1} 
.ENDS

*
* B82422-A3330-J100 SIMID 1210-100 (33 nH +-5%)
*
.subckt B82422-A3330-J100 A B  PARAMS:  R1=1.4596e-01 R2=4.8882e+03 L1=5.368437e-08 
+		C1=4.961185e-13 
X1 A B SIMID_BASE1  PARAMS:  R1a={R1} R2a={R2} L1a={L1} 
+		C1a={C1} 
.ENDS

*
* B82422-A3330-K SIMID 1210-A (33 nH +-10%)
*
.subckt B82422-A3330-K A B  PARAMS:  R1=1.4081e-01 R2=3.4224e+03 L1=3.904738e-08 
+		C1=7.063752e-13 
X1 A B SIMID_BASE1  PARAMS:  R1a={R1} R2a={R2} L1a={L1} 
+		C1a={C1} 
.ENDS

*
* B82422-A3331-J100 SIMID 1210-100 (330 nH +-5%)
*
.subckt B82422-A3331-J100 A B  PARAMS:  R1=1.0243e+00 R2=1.2401e+04 L1=5.018268e-07 
+		C1=5.592681e-13 
X1 A B SIMID_BASE1  PARAMS:  R1a={R1} R2a={R2} L1a={L1} 
+		C1a={C1} 
.ENDS

*
* B82422-A3331-K SIMID 1210-A (330 nH +-10%)
*
.subckt B82422-A3331-K A B  PARAMS:  R1=1.1317e+00 R2=1.7074e+04 L1=4.536167e-07 
+		C1=6.187067e-13 
X1 A B SIMID_BASE1  PARAMS:  R1a={R1} R2a={R2} L1a={L1} 
+		C1a={C1} 
.ENDS

*
* B82422-A3390-J100 SIMID 1210-100 (39 nH +-5%)
*
.subckt B82422-A3390-J100 A B  PARAMS:  R1=1.4702e-01 R2=2.6974e+03 L1=3.958108e-08 
+		C1=8.716497e-13 
X1 A B SIMID_BASE1  PARAMS:  R1a={R1} R2a={R2} L1a={L1} 
+		C1a={C1} 
.ENDS

*
* B82422-A3390-K SIMID 1210-A (39 nH +-10%)
*
.subckt B82422-A3390-K A B  PARAMS:  R1=1.5156e-01 R2=2.9207e+03 L1=4.319447e-08 
+		C1=7.987328e-13 
X1 A B SIMID_BASE1  PARAMS:  R1a={R1} R2a={R2} L1a={L1} 
+		C1a={C1} 
.ENDS

*
* B82422-A3391-K SIMID 1210-A (390 nH +-10%)
*
.subckt B82422-A3391-K A B  PARAMS:  R1=1.2352e+00 R2=9.7400e+03 L1=5.892917e-07 
+		C1=5.791407e-13 
X1 A B SIMID_BASE1  PARAMS:  R1a={R1} R2a={R2} L1a={L1} 
+		C1a={C1} 
.ENDS

*
* B82422-A3391-K100 SIMID 1210-100 (390 nH +-10%)
*
.subckt B82422-A3391-K100 A B  PARAMS:  R1=1.4468e+00 R2=1.0583e+04 L1=5.856786e-07 
+		C1=1.612168e-13 
X1 A B SIMID_BASE1  PARAMS:  R1a={R1} R2a={R2} L1a={L1} 
+		C1a={C1} 
.ENDS

*
* B82422-A3470-J100 SIMID 1210-100 (47 nH +-5%)
*
.subckt B82422-A3470-J100 A B  PARAMS:  R1=1.6407e-01 R2=2.7860e+03 L1=4.489036e-08 
+		C1=9.059455e-13 
X1 A B SIMID_BASE1  PARAMS:  R1a={R1} R2a={R2} L1a={L1} 
+		C1a={C1} 
.ENDS

*
* B82422-A3470-K SIMID 1210-A (47 nH +-10%)
*
.subckt B82422-A3470-K A B  PARAMS:  R1=1.7153e-01 R2=2.9367e+03 L1=6.217583e-08 
+		C1=6.790624e-13 
X1 A B SIMID_BASE1  PARAMS:  R1a={R1} R2a={R2} L1a={L1} 
+		C1a={C1} 
.ENDS

*
* B82422-A3471-J100 SIMID 1210-100 (470 nH +-5%)
*
.subckt B82422-A3471-J100 A B  PARAMS:  R1=1.5016e+00 R2=1.3399e+04 L1=8.559153e-07 
+		C1=4.502019e-13 
X1 A B SIMID_BASE1  PARAMS:  R1a={R1} R2a={R2} L1a={L1} 
+		C1a={C1} 
.ENDS

*
* B82422-A3471-K SIMID 1210-A (470 nH +-10%)
*
.subckt B82422-A3471-K A B  PARAMS:  R1=1.7682e+00 R2=1.1756e+04 L1=5.573032e-07 
+		C1=7.147967e-13 
X1 A B SIMID_BASE1  PARAMS:  R1a={R1} R2a={R2} L1a={L1} 
+		C1a={C1} 
.ENDS

*
* B82422-A3560-J100 SIMID 1210-100 (56 nH +-5%)
*
.subckt B82422-A3560-J100 A B  PARAMS:  R1=1.9422e-01 R2=7.4107e+03 L1=8.240743e-08 
+		C1=5.478732e-13 
X1 A B SIMID_BASE1  PARAMS:  R1a={R1} R2a={R2} L1a={L1} 
+		C1a={C1} 
.ENDS

*
* B82422-A3560-K SIMID 1210-A (56 nH +-10%)
*
.subckt B82422-A3560-K A B  PARAMS:  R1=1.7482e-01 R2=4.0623e+03 L1=6.785031e-08 
+		C1=7.663526e-13 
X1 A B SIMID_BASE1  PARAMS:  R1a={R1} R2a={R2} L1a={L1} 
+		C1a={C1} 
.ENDS

*
* B82422-A3561-K SIMID 1210-A (560 nH +-10%)
*
.subckt B82422-A3561-K A B  PARAMS:  R1=1.8621e+00 R2=1.4472e+04 L1=7.371407e-07 
+		C1=6.679890e-13 
X1 A B SIMID_BASE1  PARAMS:  R1a={R1} R2a={R2} L1a={L1} 
+		C1a={C1} 
.ENDS

*
* B82422-A3561-K100 SIMID 1210-100 (560 nH +-10%)
*
.subckt B82422-A3561-K100 A B  PARAMS:  R1=2.1066e+00 R2=1.8116e+04 L1=9.142757e-07 
+		C1=5.005681e-13 
X1 A B SIMID_BASE1  PARAMS:  R1a={R1} R2a={R2} L1a={L1} 
+		C1a={C1} 
.ENDS

*
* B82422-A3680-K SIMID 1210-A (68 nH +-10%)
*
.subckt B82422-A3680-K A B  PARAMS:  R1=2.0492e-01 R2=5.9877e+03 L1=1.205871e-07 
+		C1=5.223822e-13 