*************************************
*COPYRIGHT 1994, BY AMP INCORPORATED*
**ALL INTERNATIONAL RIGHTS RESERVED**
*************************************
*      TAZ PGA           *   AMP Connector Catalog No.
*    .050 X .100  inter. *          82172
*   0.35 mated lgth      *
**************************
*  rev 3/1/94
*
* THE FOLLOWING RLC MODELS ARE APPROPRIATE
* FOR EDGE SPEEDS OF 500PS OR SLOWER
*
****************** RLC MODELS ********************
*
************
*SRC=TPI35A;TPI35A;Connectors;Sockets;TAZ, Type A Inner Pos.
*SYM=ZPSLM
.SUBCKT TPI35A 1  2   3
* AMP Sockets TAZ .050 x .100 inter. 0.35 mated length, 82172
R1 1 4 0.010
L4 4 2 3.3NH
C4 4 3 0.80PF
.ENDS TPI35A
************
*SRC=TPI35B;TPI35B;Connectors;Sockets;TAZ, Type B Outer Pos.
*SYM=ZPSLM
.SUBCKT TPI35B 1  2   3
* AMP Sockets TAZ .050 x .100 inter. 0.35 mated length, 82172
R1 1 4 0.010
L4 4 2 4.0NH
C4 4 3 0.67PF
.ENDS TPI35B
************
*SRC=TPI35C;TPI35C;Connectors;Sockets;TAZ, Type C Corner Pos.
** TYPE C, CORNER POS. **
*SYM=ZPSLM
.SUBCKT TPI35C 1  2   3
* AMP Sockets TAZ .050 x .100 inter. 0.35 mated length, 82172
R1 1 4 0.010
L4 4 2 5.2NH
C4 4 3 0.51PF
.ENDS TPI35C
************
*
********** TRANSMISSION LINE MODELS **************
*
** TYPE A, INNER POS. **
*SRC=TPI35AL;TPI35AL;Connectors;Sockets;TAZ, Type A Inner Pos.
*SYM=ZPSLM
.SUBCKT TPI35AL 1  2   3
* AMP Sockets TAZ .050 x .100 inter. 0.35 mated length, 82172
R1 1 4 0.010
T4 4 3 2 3 Z0=64 TD=43PS
.ENDS TPI35AL
*************
*SRC=TPI35BL;TPI35BL;Connectors;Sockets;TAZ, Type B Outer Pos.
*SYM=ZPSLM
.SUBCKT TPI35BL 1  2   3
* AMP Sockets TAZ .050 x .100 inter. 0.35 mated length, 82172
R1 1 4 0.010
T4 4 3 2 3 Z0=77 TD=43PS
.ENDS TPI35BL
*************
*SRC=TPI35CL;TPI35CL;Connectors;Sockets;TAZ, Type C Corner Pos.
*SYM=ZPSLM
.SUBCKT TPI35CL 1  2   3
* AMP Sockets TAZ .050 x .100 inter. 0.35 mated length, 82172
R1 1 4 0.010
T4 4 3 2 3 Z0=101 TD=43PS
.ENDS TPI35CL
*************
*
*************************************
*      TAZ PGA           *   AMP Connector Catalog No.
*    .100 X .100         *           82172
*   0.35 mated lgth      *
**************************
*  rev 3/1/94
*
* THE FOLLOWING RLC MODELS ARE APPROPRIATE
* FOR EDGE SPEEDS OF 500PS OR SLOWER
*
****************** RLC MODELS ********************
*
************
*SRC=TPG35A;TPG35A;Connectors;Sockets;TAZ, Type A Inner Pos.
*SYM=ZPSLM
.SUBCKT TPG35A 1  2   3
* AMP Sockets TAZ .100 x .100 inter. 0.35 mated length, 82172
R1 1 4 0.010
L4 4 2 3.8NH
C4 4 3 0.67PF
.ENDS TPG35A
************
*SRC=TPG35B;TPG35B;Connectors;Sockets;TAZ, Type B Outer Pos.
*SYM=ZPSLM
.SUBCKT TPG35B 1  2   3
* AMP Sockets TAZ .100 x .100 inter. 0.35 mated length, 82172
R1 1 4 0.010
L4 4 2 4.3NH
C4 4 3 0.59PF
.ENDS TPG35B
************
*SRC=TPG35C;TPG35C;Connectors;Sockets;TAZ, Type C Corner Pos.
*SYM=ZPSLM
.SUBCKT TPG35C 1  2   3
* AMP Sockets TAZ .100 x .100 inter. 0.35 mated length, 82172
R1 1 4 0.010
L4 4 2 5.3NH
C4 4 3 0.48PF
.ENDS TPG35C
************
*
********** TRANSMISSION LINE MODELS **************
*
************
*SRC=TPG35AL;TPG35AL;Connectors;Sockets;TAZ, Type A Inner Pos.
*SYM=ZPSLM
.SUBCKT TPG35AL 1  2   3
* AMP Sockets TAZ .100 x .100 inter. 0.35 mated length, 82172
R1 1 4 0.010
T4 4 3 2 3 Z0=75 TD=43PS
.ENDS TPG35AL
*************
*SRC=TPG35BL;TPG35BL;Connectors;Sockets;TAZ, Type B Outer Pos.
*SYM=ZPSLM
.SUBCKT TPG35BL 1  2   3
* AMP Sockets TAZ .100 x .100 inter. 0.35 mated length, 82172
R1 1 4 0.010
T4 4 3 2 3 Z0=85 TD=43PS
.ENDS TPG35BL
*************
*SRC=TPG35CL;TPG35CL;Connectors;Sockets;TAZ, Type C Corner Pos.
*SYM=ZPSLM
.SUBCKT TPG35CL 1  2   3
* AMP Sockets TAZ .100 x .100 inter. 0.35 mated length, 82172
R1 1 4 0.010
T4 4 3 2 3 Z0=105 TD=43PS
.ENDS TPG35CL
*************
*
*************************************
*                       *   AMP Connector Catalog No.
*   LOW FORCE PGA       *           101
*   (Mark Eyelet)       *
*************************
*  rev 3/1/94
*
* THE FOLLOWING RLC MODELS ARE APPROPRIATE
* FOR EDGE SPEEDS OF 500PS OR SLOWER
*
****************** RLC MODELS ********************
*
*************
*SRC=MEPGA;MEPGA;Connectors;Sockets;Low Force, Type A Inner Pos.
*SYM=ZPSLM
.SUBCKT MEPGA 1  2   3
* AMP Sockets Low Force PGS, 101
R1 1 4 0.001
L4 4 2 1.3NH
C4 4 3 0.64PF
.ENDS MEPGA
***********
*SRC=MEPGB;MEPGB;Connectors;Sockets;Low Force, Type B Outer Pos.
*SYM=ZPSLM
* AMP Sockets Low Force PGS, 101
.SUBCKT MEPGB 1  2   3
R1 1 4 0.001
L4 4 2 1.5NH
C4 4 3 0.55PF
.ENDS MEPGB
***********
*SRC=MEPGC;MEPGC;Connectors;Sockets;Low Force, Type C Corner Pos.
*SYM=ZPSLM
.SUBCKT MEPGC 1  2   3
* AMP Sockets Low Force PGS, 101
R1 1 4 0.001
L4 4 2 1.7NH
C4 4 3 0.42PF
.ENDS MEPGC
************
*
********** TRANSMISSION LINE MODELS **************
*
************
*SRC=MEPGAL;MEPGAL;Connectors;Sockets;Low Force, Type A Inner Pos.
*SYM=ZPSLM
.SUBCKT MEPGAL 1  2   3
* AMP Sockets Low Force PGS, 101
R1 1 4 0.001
T4 4 3 2 3 Z0=46 TD=33PS
.ENDS MEPGAL
************
*SRC=MEPGBL;MEPGBL;Connectors;Sockets;Low Force, Type B Outer Pos.
*SYM=ZPSLM
.SUBCKT MEPGBL 1  2   3
* AMP Sockets Low Force PGS, 101
R1 1 4 0.001
T4 4 3 2 3 Z0=52 TD=32PS
.ENDS MEPGBL
************
*SRC=MEPGCL;MEPGCL;Connectors;Sockets;Low Force, Type C Corner Pos.
*SYM=ZPSLM
.SUBCKT MEPGCL 1  2   3
* AMP Sockets Low Force PGS, 101
R1 1 4 0.001
T4 4 3 2 3 Z0=65 TD=30PS
.ENDS MEPGCL
************
*
*************************************
*                        *   AMP Connector Catalog No.
*      LIF PGA           *           82172
*   0.27 mated lgth      *
**************************
*   rev 3/1/94
*
* THE FOLLOWING RLC MODELS ARE APPROPRIATE
* FOR EDGE SPEEDS OF 500PS OR SLOWER
*
****************** RLC MODELS ********************
*SRC=LPG27A;LPG27A;Connectors;Sockets;LIF PGA, Type A Inner Pos.
*SYM=ZPSLM
.SUBCKT LPG27A 1  2   3
* AMP Sockets LIF PGA, 0.27 mated length, 82172
R1 1 4 0.015
L4 4 2 2.2NH
C4 4 3 0.55PF
.ENDS LPG27A
************
*SRC=LPG27B;LPG27B;Connectors;Sockets;LIF PGA, Type B Outer Pos.
*SYM=ZPSLM
.SUBCKT LPG27B 1  2   3
* AMP Sockets LIF PGA, 0.27 mated length, 82172
R1 1 4 0.015
L4 4 2 2.4NH
C4 4 3 0.50PF
.ENDS LPG27B
************
*SRC=LPG27C;LPG27C;Connectors;Sockets;Low Force, Type C Corner Pos.
*SYM=ZPSLM
.SUBCKT LPG27C 1  2   3
* AMP Sockets LIF PGA, 0.27 mated length, 82172
R1 1 4 0.015
L4 4 2 2.8NH
C4 4 3 0.40PF
.ENDS LPG27C
************
*
********** TRANSMISSION LINE MODELS **************
*
************
*SRC=LPG27AL;LPG27AL;Connectors;Sockets;LIF PGA, Type A Inner Pos.
*SYM=ZPSLM
.SUBCKT LPG27AL 1  2   3
* AMP Sockets LIF PGA, 0.27 mated length, 82172
R1 1 4 0.015
T4 4 3 2 3 Z0=63 TD=35PS
.ENDS LPG27AL
*************
*SRC=LPG27BL;LPG27BL;Connectors;Sockets;LIF PGA, Type B Outer Pos.
*SYM=ZPSLM
.SUBCKT LPG27BL 1  2   3
* AMP Sockets LIF PGA, 0.27 mated length, 82172
R1 1 4 0.015
T4 4 3 2 3 Z0=69 TD=35PS
.ENDS LPG27BL
*************
*SRC=LPG27CL;LPG27CL;Connectors;Sockets;LIF PGA, Type C Corner Pos.
*SYM=ZPSLM
.SUBCKT LPG27CL 1  2   3
* AMP Sockets LIF PGA, 0.27 mated length, 82172
R1 1 4 0.015
T4 4 3 2 3 Z0=84 TD=33PS
.ENDS LPG27CL
*************
*
*****************************************************
*   MICROPITCH          *   AMP Connector Catalog No.
*   SM SOCKET           *
*   0.5mm centerlines   *
*************************
*  rev 5/3/95
****************** RLC MODELS ********************
*
* THE FOLLOWING RLC MODELS ARE APPROPRIATE
* FOR EDGE SPEEDS OF 500PS OR SLOWER
*
*************
*SRC=MPSM5A;MPSM5A;Connectors;Sockets;Micropitch SM, All lines
*SYM=ZPSLM
.SUBCKT MPSM5A 1  2   3
*             IN*OUT*REF
* AMP Micropitch SM Socket 0.5mm
R1 1 4 0.014
L4 4 2 1.9NH
C4 4 3 0.8PF
.ENDS MPSM5A
************
*
********** TRANSMISSION LINE MODELS **************
*
************
*SRC=MPSM5AL;MPSM5AL;Connectors;Sockets;Micropitch SM, All lines
*SYM=ZPSLM
* AMP Micropitch SM Socket 0.5mm
.SUBCKT MPSM5AL 1  2   3
*              IN*OUT*REF
R1 1 4 0.014
T4 4 3 2 3 Z0=42 TD=42PS
.ENDS MPSM5AL
*************
*
*****************************************************
*                       *   AMP Connector Catalog No.
* LP SL ZIF INTERSTITIAL *           82172
* SOCKET                *
*************************
*  rev 5/13/96
*
* THE FOLLOWING RLC MODELS ARE APPROPRIATE
* FOR EDGE SPEEDS OF 250PS OR SLOWER
*
****************** RLC MODELS ********************
*
********
*SRC=LPSLISM;LPSLISM;Connectors;Sockets;LP SL ZIF Interstitial
*SYM=ZPSLM
.SUBCKT LPSLISM   1  2   3
*                IN OUT REF
R1 1 4 0.003
L4 4 5 1.4NH
C5 5 3 0.4PF
L5 5 6 1.4NH
R6 6 2 0.003
.ENDS LPSLISM
***********
*SRC=LPSLISA;LPSLISA;Connectors;Sockets;LP SL ZIF Interstitial
*SYM=ZPSLM
.SUBCKT LPSLISA 1  2   3
*                IN OUT REF
*Row A, INTERNAL 
R1 1 4 0.003
L4 4 5 1.2NH
C5 5 3 0.5PF
L5 5 6 1.2NH
R6 6 2 0.003
.ENDS LPSLISA
*************
*SRC=LPSLISB;LPSLISB;Connectors;Sockets;LP SL ZIF Interstitial
*SYM=ZPSLM
.SUBCKT LPSLISB 1  2   3
*                IN OUT REF
*Row B, Edge 
R1 1 4 0.003
L4 4 5 1.4NH
C5 5 3 0.4PF
L5 5 6 1.4NH
R6 6 2 0.003
.ENDS LPSLISB
***********
*SRC=LPSLISC;LPSLISC;Connectors;Sockets;LP SL ZIF Interstitial
*SYM=ZPSLM
.SUBCKT LPSLISC 1  2   3
*                IN OUT REF
*Row C, Corner 
R1 1 4 0.003
L4 4 5 1.6NH
C5 5 3 0.3PF
L5 5 6 1.6NH
R6 6 2 0.003
.ENDS LPSLISC
***********
*
********** TRANSMISSION LINE MODELS **************
*
**********
*SRC=LPSLISML;LPSLISML;Connectors;Sockets;LP SL ZIF Interstitial
*SYM=ZPSLM
.SUBCKT LPSLISML   1  2   3
*                IN OUT REF
* MEDIAN VALUE
R1 1 4 0.006
T4 4 3 2 3 Z0=82 TD=34PS
.ENDS LPSLISML
************
*SRC=LPSLISAL;LPSLISAL;Connectors;Sockets;LP SL ZIF Interstitial
*SYM=ZPSLM
.SUBCKT LPSLISAL   1  2   3
*                IN OUT REF
*Row A, INTERNAL 
R1 1 4 0.006
T4 4 3 2 3 Z0=68 TD=36PS
.ENDS LPSLISAL
************
*SRC=LPSLISBL;LPSLISBL;Connectors;Sockets;LP SL ZIF Interstitial
*SYM=ZPSLM
.SUBCKT LPSLISBL   1  2   3
*                IN OUT REF
*Row B, Edge 
R1 1 4 0.006
T4 4 3 2 3 Z0=79 TD=34PS
.ENDS LPSLISBL
************
*SRC=LPSLISCL;LPSLISCL;Connectors;Sockets;LP SL ZIF Interstitial
*SYM=ZPSLM
.SUBCKT LPSLISCL   1  2   3
*                IN OUT REF
*Row C, Corner 
R1 1 4 0.006
T4 4 3 2 3 Z0=98 TD=32PS
.ENDS LPSLISCL
************
*
*****************************************************
*                       *   AMP Connector Catalog No.
* LP SL ZIF SOCKET      *           82172
* SOCKETS 3 & 6         *
*************************
*  rev 5/13/96
*
* THE FOLLOWING RLC MODELS ARE APPROPRIATE
* FOR EDGE SPEEDS OF 250PS OR SLOWER
*
****************** RLC MODELS ********************
*
***********
*SRC=LPSLS36M;LPSLS36M;Connectors;Sockets;LP SL ZIF Socket
*SYM=ZPSLM
.SUBCKT LPSLS36M   1  2   3
*                IN OUT REF
* MEDIAN VALUE
R1 1 4 0.004
L4 4 5 1.7NH
C5 5 3 0.4PF
L5 5 6 1.7NH
R6 6 2 0.004
.ENDS LPSLS36M
***********
*SRC=LPSLS36A;LPSLS36A;Connectors;Sockets;LP SL ZIF Socket
*SYM=ZPSLM
.SUBCKT LPSLS36A 1  2   3
*                IN OUT REF
*Row A, Internal
R1 1 4 0.004
L4 4 5 1.6NH
C5 5 3 0.5PF
L5 5 6 1.6NH
R6 6 2 0.004
.ENDS LPSLS36A
*************
*SRC=LPSLS36B;LPSLS36B;Connectors;Sockets;LP SL ZIF Socket
*SYM=ZPSLM
.SUBCKT LPSLS36B 1  2   3
*                IN OUT REF
*Row B, Edge
R1 1 4 0.004
L4 4 5 1.7NH
C5 5 3 0.4PF
L5 5 6 1.7NH
R6 6 2 0.004
.ENDS LPSLS36B
***********
*SRC=LPSLS36C;LPSLS36C;Connectors;Sockets;LP SL ZIF Socket
*SYM=ZPSLM
.SUBCKT LPSLS36C 1  2   3
*                IN OUT REF
*Row C, Corner
R1 1 4 0.004
L4 4 5 1.9NH
C5 5 3 0.3PF
L5 5 6 1.9NH
R6 6 2 0.004
.ENDS LPSLS36C
***********
*
********** TRANSMISSION LINE MODELS **************
*
*
**********
*SRC=LPSLS36ML;LPSLS36ML;Connectors;Sockets;LP SL ZIF Socket
*SYM=ZPSLM
.SUBCKT LPSLS36ML   1  2   3
*                IN OUT REF
* MEDIAN VALUES
R1 1 4 0.007
T4 4 3 2 3 Z0=94 TD=36PS
.ENDS LPSLS36ML
************
*SRC=LPSLS36AL;LPSLS36AL;Connectors;Sockets;LP SL ZIF Socket
*SYM=ZPSLM
.SUBCKT LPSLS36AL   1  2   3
*                IN OUT REF
*Row A, Internal
R1 1 4 0.007
T4 4 3 2 3 Z0=83 TD=37PS
.ENDS LPSLS36AL
************
*SRC=LPSLS36BL;LPSLS36BL;Connectors;Sockets;LP SL ZIF Socket
*SYM=ZPSLM
.SUBCKT LPSLS36BL   1  2   3
*                IN OUT REF
*Row B, Edge
R1 1 4 0.007
T4 4 3 2 3 Z0=90 TD=36PS
.ENDS LPSLS36BL
************
*SRC=LPSLS36CL;LPSLS36CL;Connectors;Sockets;LP SL ZIF Socket
*SYM=ZPSLM
.SUBCKT LPSLS36CL   1  2   3
*                IN OUT REF
*Row C, Corner
R1 1 4 0.007
T4 4 3 2 3 Z0=109 TD=34PS
.ENDS LPSLS36CL
************
*
*****************************************************
*                       *   AMP Connector Catalog No.
* P6 INTERSTITIAL SOCKET*           82172
*                       *
*************************
*  rev 5/13/96
*
* THE FOLLOWING RLC MODELS ARE APPROPRIATE
* FOR EDGE SPEEDS OF 500PS OR SLOWER
*
****************** RLC MODELS ********************
*
********
*SRC=P6ISM;P6ISM;Connectors;Sockets;Interstitial, Median
*SYM=ZPSLM
.SUBCKT P6ISM   1  2   3
*                IN OUT REF
R1 1 4 0.006
L4 4 5 2.1NH
C5 5 3 0.6PF
L5 5 6 2.1NH
R6 6 2 0.006
.ENDS P6ISM
***********
*SRC=P6ISA;P6ISA;Connectors;Sockets;Interstitial Row A Internal
*SYM=ZPSLM
.SUBCKT P6ISA 1  2   3
*                IN OUT REF
R1 1 4 0.006
L4 4 5 2.0NH
C5 5 3 0.7PF
L5 5 6 2.0NH
R6 6 2 0.006
.ENDS P6ISA
*************
*SRC=P6ISB;P6ISB;Connectors;Sockets;Interstitial Row B Edge
*SYM=ZPSLM
.SUBCKT P6ISB 1  2   3
*                IN OUT REF
R1 1 4 0.006
L4 4 5 2.0NH
C5 5 3 0.6PF
L5 5 6 2.0NH
R6 6 2 0.006
.ENDS P6ISB
***********
*SRC=P6ISC;P6ISC;Connectors;Sockets;Interstitial Row C Corner
*SYM=ZPSLM
.SUBCKT P6ISC 1  2   3
*                IN OUT REF
R1 1 4 0.006
L4 4 5 2.3NH
C5 5 3 0.5PF
L5 5 6 2.3NH
R6 6 2 0.006
.ENDS P6ISC
***********
*
********** TRANSMISSION LINE MODELS **************
*
********
*SRC=P6ISML;P6ISML;Connectors;Sockets;Interstitial, Median
*SYM=ZPSLM
.SUBCKT P6ISML   1  2   3
*                IN OUT REF
R1 1 4 0.012
T4 4 3 2 3 Z0=86 TD=47PS
.ENDS P6ISML
************
*SRC=P6ISAL;P6ISAL;Connectors;Sockets;Interstitial Row A Internal
*SYM=ZPSLM
.SUBCKT P6ISAL   1  2   3
*                IN OUT REF
R1 1 4 0.012
T4 4 3 2 3 Z0=77 TD=50PS
.ENDS P6ISAL
************
*SRC=P6ISBL;P6ISBL;Connectors;Sockets;Interstitial Row B Edge
*SYM=ZPSLM
.SUBCKT P6ISBL   1  2   3
*                IN OUT REF
R1 1 4 0.012
T4 4 3 2 3 Z0=83 TD=47PS
.ENDS P6ISBL
************
*SRC=P6ISCL;P6ISCL;Connectors;Sockets;Interstitial Row C Corner
*SYM=ZPSLM
.SUBCKT P6ISCL   1  2   3
*                IN OUT REF
R1 1 4 0.012
T4 4 3 2 3 Z0=99 TD=45PS
.ENDS P6ISCL
************
*
******************************************************
*                        *   AMP Connector Catalog No.
*    0.8mm Pitch PLCC    *           82172
*      Socket 50J        *
**************************
*   rev 5/13/96, INITIAL
*
* THE FOLLOWING RLC MODELS ARE APPROPRIATE
* FOR EDGE SPEEDS OF 500PS OR SLOWER
*
****************** RLC MODELS ********************
*SRC=PLCC;PLCC;Connectors;Sockets;0.8mm Pitch 50J
*SYM=ZPSLM
.SUBCKT PLCC 1   2   3
*                IN OUT REF
R1 1 4 0.002
L4 4 5 0.8NH
C4 5 3 1.OPF
L5 5 6 0.8NH
R6 6 2 0.002
.ENDS PLCC
************
*
********** TRANSMISSION LINE MODELS **************
*
***********
*SRC=PLCCL;PLCCL;Connectors;Sockets;0.8mm Pitch 50J
*SYM=ZPSLM
.SUBCKT PLCCL   1  2   3
*                IN OUT REF
R1 1 4 0.004
T4 4 3 2 3 Z0=40 TD=40PS
.ENDS PLCCL
*************
*
*****************************************************
*                       *   AMP Connector Catalog No.
* SOCKET #5, INTERSTITAL*           82172
*      SOCKET           *
*************************
*  rev 5/13/96
*
* THE FOLLOWING RLC MODELS ARE APPROPRIATE
* FOR EDGE SPEEDS OF 500PS OR SLOWER
*
****************** RLC MODELS ********************
*
*******
*SRC=S5ISM;S5ISM;Connectors;Sockets;Interstital, Median
*SYM=ZPSLM
.SUBCKT S5ISM   1  2   3
*                IN OUT REF
R1 1 4 0.006
L4 4 5 1.9NH
C5 5 3 0.6PF
L5 5 6 1.9NH
R6 6 2 0.006
.ENDS S5ISM
***********
*SRC=S5ISA;S5ISA;Connectors;Sockets;Interstital, Row A Internal
*SYM=ZPSLM
.SUBCKT S5ISA 1  2   3
*                IN OUT REF
R1 1 4 0.006
L4 4 5 1.6NH
C5 5 3 0.7PF
L5 5 6 1.6NH
R6 6 2 0.006
.ENDS S5ISA
*************
*SRC=S5ISB;S5ISB;Connectors;Sockets;Interstital, Row B Edge
*SYM=ZPSLM
.SUBCKT S5ISB 1  2   3
*                IN OUT REF
R1 1 4 0.006
L4 4 5 1.9NH
C5 5 3 0.6PF
L5 5 6 1.9NH
R6 6 2 0.006
.ENDS S5ISB
***********
*SRC=S5ISC;S5ISC;Connectors;Sockets;Interstital, Row C Corner
*SYM=ZPSLM
.SUBCKT S5ISC 1  2   3
*                IN OUT REF
R1 1 4 0.006
L4 4 5 2.2NH
C5 5 3 0.4PF
L5 5 6 2.2NH
R6 6 2 0.006
.ENDS S5ISC
***********
*
********** TRANSMISSION LINE MODELS **************
*
*********
*SRC=S5ISML;S5ISML;Connectors;Sockets;Interstital, Median
*SYM=ZPSLM
.SUBCKT S5ISML   1  2   3
*                IN OUT REF
R1 1 4 0.012
T4 4 3 2 3 Z0=82 TD=45PS
.ENDS S5ISML
************
*SRC=S5ISAL;S5ISAL;Connectors;Sockets;Interstital, Row A Internal
*SYM=ZPSLM
.SUBCKT S5ISAL   1  2   3
*                IN OUT REF
R1 1 4 0.012
T4 4 3 2 3 Z0=68 TD=47PS
.ENDS S5ISAL
************
*SRC=S5ISBL;S5ISBL;Connectors;Sockets;Interstital, Row B Edge
*SYM=ZPSLM
.SUBCKT S5ISBL   1  2   3
*                IN OUT REF
R1 1 4 0.012
T4 4 3 2 3 Z0=80 TD=46PS
.ENDS S5ISBL
************
*SRC=S5ISCL;S5ISCL;Connectors;Sockets;Interstital, Row C Corner
*SYM=ZPSLM
.SUBCKT S5ISCL   1  2   3
*                IN OUT REF
R1 1 4 0.012
T4 4 3 2 3 Z0=99 TD=43PS
.ENDS S5ISCL
************
*
*****************************************************
*                       *   AMP Connector Catalog No.
* STD SL ZIF PGA SOCKET *           82172
*                       *
*************************
*  rev 5/13/96
*
* THE FOLLOWING RLC MODELS ARE APPROPRIATE
* FOR EDGE SPEEDS OF 500PS OR SLOWER
*
****************** RLC MODELS ********************
*
********
*SRC=SPGAM;SPGAM;Connectors;Sockets;SL ZIF PGA, Median
*SYM=ZPSLM
.SUBCKT SPGAM   1  2   3
*                IN OUT REF
R1 1 4 0.006
L4 4 5 2.1NH
C5 5 3 0.5PF
L5 5 6 2.1NH
R6 6 2 0.006
.ENDS SPGAM
***********
*SRC=SPGAA;SPGAA;Connectors;Sockets;SL ZIF PGA, Row A Internal
*SYM=ZPSLM
.SUBCKT SPGAA 1  2   3
*                IN OUT REF
R1 1 4 0.006
L4 4 5 2.0NH
C5 5 3 0.6PF
L5 5 6 2.0NH
R6 6 2 0.006
.ENDS SPGAA
*************
*SRC=SPGAB;SPGAB;Connectors;Sockets;SL ZIF PGA, Row B Edge
*SYM=ZPSLM
.SUBCKT SPGAB 1  2   3
*                IN OUT REF
R1 1 4 0.006
L4 4 5 2.1NH
C5 5 3 0.5PF
L5 5 6 2.1NH
R6 6 2 0.006
.ENDS SPGAB
***********
*SRC=SPGAC;SPGAC;Connectors;Sockets;SL ZIF PGA, Row C Corner
*SYM=ZPSLM
.SUBCKT SPGAC 1  2   3
*                IN OUT REF
R1 1 4 0.006
L4 4 5 2.4NH
C5 5 3 0.4PF
L5 5 6 2.4NH
R6 6 2 0.006
.ENDS SPGAC
***********
*
********** TRANSMISSION LINE MODELS **************
*
*********
*SRC=SPGAML;SPGAML;Connectors;Sockets;SL ZIF PGA, Median
*SYM=ZPSLM
.SUBCKT SPGAML   1  2   3
*                IN OUT REF
R1 1 4 0.012
T4 4 3 2 3 Z0=93 TD=46PS
.ENDS SPGAML
************
*SRC=SPGAAL;SPGAAL;Connectors;Sockets;SL ZIF PGA, Row A Internal
*SYM=ZPSLM
.SUBCKT SPGAAL   1  2   3
*                IN OUT REF
R1 1 4 0.012
T4 4 3 2 3 Z0=81 TD=48PS
.ENDS SPGAAL
************
*SRC=SPGABL;SPGABL;Connectors;Sockets;SL ZIF PGA, Row B Edge
*SYM=ZPSLM
.SUBCKT SPGABL   1  2   3
*                IN OUT REF
R1 1 4 0.012
T4 4 3 2 3 Z0=91 TD=46PS
.ENDS SPGABL
************
*SRC=SPGACL;SPGACL;Connectors;Sockets;SL ZIF PGA, Row C Corner
*SYM=ZPSLM
.SUBCKT SPGACL   1  2   3
*                IN OUT REF
R1 1 4 0.012
T4 4 3 2 3 Z0=107 TD=44PS
.ENDS SPGACL
*****************************************************
*                       *   AMP Connector Catalog No.
*    1mm Card Edge      *           
*  (Pentium Pro II)     *
*************************
*  rev 5/13/97
*
* !!!!!!!!!!!!!!!!!!!!!!!!!!!!!!!!!!!!!!!!!!!!!!!!!!!!!!
*
*  THE FOLLOWING RLC MODELS ARE APPROPRIATE
*  FOR EDGE SPEEDS OF 850PS OR SLOWER
*
* FOR FASTER EDGE SPEED, THE LUMPED MODEL MUST
* BE DIVIDED INTO SMALLER SECTIONS.  TYPICALLY,
* THE SECTION'S PROPAGATION DELAY SHOULD BE
* 1/10TH OF THE EDGE SPEED.
*
*  !!!!!!!!!!!!!!!!!!!!!!!!!!!!!!!!!!!!!!!!!!!!!!!!!!!!!!
*
****************** RLC MODELS ********************
*
************
*SRC=CE1MMS;CE1MMS;Connectors;Sockets;1MM Card Edge Short Row
*SYM=ZPSLM
.SUBCKT CE1MMS 1  2   3
*             IN OUT REF
R1 1 4 0.005
L5 5 6 2.17NH
C6 6 3 1.20PF
L6 6 7 2.17NH
R7 7 2 0.005
*
.ENDS CE1MMS
***********
*
***********
*SRC=CE1MML;CE1MML;Connectors;Sockets;1MM Card Edge Long Row
*SYM=ZPSLM
.SUBCKT CE1MML 1  2   3
*             IN OUT REF
R1 1 4 0.004
L5 5 6 2.56NH
C6 6 3 1.41PF
L6 6 7 2.56NH
R7 7 2 0.004
*
.ENDS CE1MML
***********
*
********** TRANSMISSION LINE MODELS **************
*
***********
*SRC=CD1MMSL;CD1MMSL;Connectors;Sockets;1MM Card Edge Short Row
*SYM=ZPSLM
.SUBCKT CD1MMSL 1  2   3
*              IN OUT REF
R1 1 4 0.011
T4 4 3 2 3 Z0=60 TD=72PS
.ENDS CD1MMSL
***********
*
***********
*SRC=CD1MMLL;CD1MMLL;Connectors;Sockets;1MM Card Edge Long Row
*SYM=ZPSLM
.SUBCKT CD1MMLL 1  2   3
*              IN OUT REF
R1 1 4 0.008
T4 4 3 2 3 Z0=60 TD=85PS
.ENDS CD1MMLL
*****************************************************
*                       *   AMP Connector Catalog No.
*    DIMM II CONNECTOR  *           82172
*                       *
*************************
*  rev 5/13/97
*
*  !!!!!!!!!!!!!!!!!!!!!!!!!!!!!!!!!!!!!!!!!!!!!!!!!!!!!!
*
*  THE FOLLOWING RLC MODELS ARE APPROPRIATE
*  FOR EDGE SPEEDS OF 500PS OR SLOWER
*
* FOR FASTER EDGE SPEED, THE LUMPED MODEL MUST
* BE DIVIDED INTO SMALLER SECTIONS.  TYPICALLY,
* THE SECTION'S PROPAGATION DELAY SHOULD BE
* 1/10TH OF THE EDGE SPEED.
*
*  !!!!!!!!!!!!!!!!!!!!!!!!!!!!!!!!!!!!!!!!!!!!!!!!!!!!!!
*
****************** RLC MODELS ********************
*
***********
*SRC=DIMM2;DIMM2;Connectors;Sockets;Dimm II All Rows
*SYM=ZPSLM
.SUBCKT DIMM2 1  2   3
*             IN OUT REF
R1 1 4 0.006
L5 5 6 1.2NH
C6 6 3 0.84PF
L6 6 7 1.2NH
R7 7 2 0.006
*
.ENDS DIMM2
***********
*
********** TRANSMISSION LINE MODELS **************
*
***********
*SRC=DIMM2L;DIMM2L;Connectors;Sockets;Dimm II All Rows
*SYM=ZPSLM
.SUBCKT DIMM2L 1  2   3
*             IN OUT REF
R1 1 4 0.010
T4 4 3 2 3 Z0=54 TD=45PS
.ENDS DIMML
*************************************************************
*                                *  AMP Connector Catalog No.
*      Micro 2 Piece Array       *           TBD
*       3mm Stack Height         *
*                                *
**********************************
*   rev 5/13/97,
*!!!!!!!!!!!!!!!!!!!!!!!!!!!!!!!!!!!!!!!!!
*
* THE FOLLOWING RLC MODELS ARE APPROPRIATE
* FOR EDGE SPEEDS OF 1.0NS OR SLOWER
*
* FOR FASTER EDGE SPEED, THE LUMPED MODEL MUST
* BE DIVIDED INTO SMALLER SECTIONS.  TYPICALLY,
* THE SECTION'S PROPAGATION DELAY SHOULD BE
* 1/10TH OF THE EDGE SPEED.
*
*!!!!!!!!!!!!!!!!!!!!!!!!!!!!!!!!!!!!!!!!!
*
****************** RLC MODELS ********************
* 
************
*SRC=M2PA;M2PA;Connectors;Sockets;Micro 2 Piece 3MM Stack Row A
*SYM=ZPSLM
.SUBCKT  M2PA 1   2   3
*             IN OUT REF
R1 1 4 0.007
L4 4 5 9.15NH
C4 5 3 0.77PF
L5 5 6 9.15NH
R6 6 2 0.007
.ENDS M2PA
************
*
********** TRANSMISSION LINE MODELS **************
*
************
*SRC=M2PAL;M2PAL;Connectors;Sockets;Micro 2 Piece 3MM Stack Row A
*SYM=ZPSLM
.SUBCKT M2PAL  1  2   3
*             IN OUT REF
R1 1 4 0.013
T4 4 3 2 3 Z0=154 TD=119PS
.ENDS M2PAL
*****************************************************
* S.O. DIMM VERTICAL    *   AMP Connector Catalog No.
* CONNECTOR (SYNCLINK)  *
*************************
*  rev 5/13/97
*
*  !!!!!!!!!!!!!!!!!!!!!!!!!!!!!!!!!!!!!!!!!!!!!!!!!!!!!!
*
*  THE FOLLOWING RLC MODELS ARE APPROPRIATE
*  FOR EDGE SPEEDS OF 600PS OR SLOWER
*
*  FOR FASTER EDGE SPEED, THE LUMPED MODEL MUST
*  BE DIVIDED INTO SMALLER SECTIONS.  TYPICALLY,
*  THE SECTION'S PROPAGATION DELAY SHOULD BE
*  1/10TH OF THE EDGE SPEED.
*
*  !!!!!!!!!!!!!!!!!!!!!!!!!!!!!!!!!!!!!!!!!!!!!!!!!!!!!!
*
****************** RLC MODELS ********************
*
*************
*SRC=SODIMV;SODIMV;Connectors;Sockets;SO Dimm Vert. Row A/B
*SYM=ZPSLM
.SUBCKT  SODIMV 1  2   3
*             IN OUT REF
R1 1 4 0.012
L4 4 5 1.41NH
C5 5 3 1.25PF
L5 5 6 1.41NH
R6 6 2 0.012
.ENDS  SODIMV
*************
*
********** TRANSMISSION LINE MODELS **************
*
*************
*SRC=SODIMVL;SODIMVL;Connectors;Sockets;SO Dimm Vert. Row A/B
*SYM=ZPSLM
.SUBCKT  SODIMVL 1  2   3
*             IN OUT REF
R1 1 4 0.024
T4 4 3 2 3 Z0=48 TD=60PS
.ENDS  SODIMVL
*****************************************************
* S.O. DIMM RIGHT ANGLE *   AMP Connector Catalog No.
*   8MM STACK HEIGHT    *
*      CONNECTOR        *
*************************
*  rev 5/13/97
*
*  !!!!!!!!!!!!!!!!!!!!!!!!!!!!!!!!!!!!!!!!!!!!!!!!!!!!!!
*
*  THE FOLLOWING RLC MODELS ARE APPROPRIATE
*  FOR EDGE SPEEDS OF 1NS OR SLOWER
*
*  FOR FASTER EDGE SPEED, THE LUMPED MODEL MUST
*  BE DIVIDED INTO SMALLER SECTIONS.  TYPICALLY,
*  THE SECTION'S PROPAGATION DELAY SHOULD BE
*  1/10TH OF THE EDGE SPEED.
*
*  !!!!!!!!!!!!!!!!!!!!!!!!!!!!!!!!!!!!!!!!!!!!!!!!!!!!!!
*
****************** RLC MODELS ********************
*
*************
*SRC=SODIMRA80M;SODIMRA80M;Connectors;Sockets;SO Dimm RA 8MM Median Row
*SYM=ZPSLM
.SUBCKT  SODIMRA80M 1  2   3
*             IN OUT REF
R1 1 4 0.012
L4 4 5 2.00NH
C5 5 3 1.72PF
L5 5 6 2.00NH
R6 6 2 0.012
.ENDS  SODIMRA80M
***********
*
*************
*SRC=SODIMRA80A;SODIMRA80A;Connectors;Sockets;SO Dimm RA 8MM Row A
*SYM=ZPSLM
.SUBCKT  SODIMRA80A 1  2   3
*             IN OUT REF
R1 1 4 0.014
L4 4 5 2.41NH
C5 5 3 1.76PF
L5 5 6 2.41NH
R6 6 2 0.014
.ENDS  SODIMRA80A
*****************
*
*************
*SRC=SODIMRA80B;SODIMRA80B;Connectors;Sockets;SO Dimm RA 8MM Row B
*SYM=ZPSLM
.SUBCKT  SODIMRA80B 1  2   3
*             IN OUT REF
R1 1 4 0.010
L4 4 5 1.61NH
C5 5 3 1.68PF
L5 5 6 1.61NH
R6 6 2 0.010
.ENDS  SODIMRA80B
*****************
*
********** TRANSMISSION LINE MODELS **************
*
*****************
*SRC=SODIMRA80ML;SODIMRA80ML;Connectors;Sockets;SO Dimm RA 8MM MEdian
*SYM=ZPSLM
.SUBCKT  SODIMRA80ML 1  2   3
*             IN OUT REF
R1 1 4 0.024
T4 4 3 2 3 Z0=48 TD=83PS
.ENDS  SODIMRA80ML
******************
*
*************
*SRC=SODIMRA80AL;SODIMRA80AL;Connectors;Sockets;SO Dimm RA 8MM Row A
*SYM=ZPSLM
.SUBCKT  SODIMRA80AL 1  2   3
*             IN OUT REF
R1 1 4 0.027
T4 4 3 2 3 Z0=52 TD=92PS
.ENDS  SODIMRA80AL
******************
*
*************
*SRC=SODIMRA80BL;SODIMRA80BL;Connectors;Sockets;SO Dimm RA 8MM Row B
*SYM=ZPSLM
.SUBCKT  SODIMRA80BL 1  2   3
*             IN OUT REF
R1 1 4 0.019
T4 4 3 2 3 Z0=48 TD=73PS
.ENDS  SODIMRA80BL
*****************************************************
* S.O. DIMM RIGHT ANGLE *   AMP Connector Catalog No.
*   3.7MM STACK HEIGHT  *
*      CONNECTOR        *
*************************
*  rev 5/13/97
*
*  !!!!!!!!!!!!!!!!!!!!!!!!!!!!!!!!!!!!!!!!!!!!!!!!!!!!!!
*
*  THE FOLLOWING RLC MODELS ARE APPROPRIATE
*  FOR EDGE SPEEDS OF 650PS OR SLOWER
*
*  FOR FASTER EDGE SPEED, THE LUMPED MODEL MUST
*  BE DIVIDED INTO SMALLER SECTIONS.  TYPICALLY,
*  THE SECTION'S PROPAGATION DELAY SHOULD BE
*  1/10TH OF THE EDGE SPEED.
*
*  !!!!!!!!!!!!!!!!!!!!!!!!!!!!!!!!!!!!!!!!!!!!!!!!!!!!!!
*
****************** RLC MODELS ********************
*
*****************
*SRC=SODIMRA37M;SODIMRA37M;Connectors;Sockets;SO Dimm RA 3.7MM Median Row
*SYM=ZPSLM
.SUBCKT  SODIMRA37M 1  2   3
*             IN OUT REF
R1 1 4 0.010
L4 4 5 1.53NH
C5 5 3 1.08PF
L5 5 6 1.53NH
R6 6 2 0.010
.ENDS  SODIMRA37M
*****************
*
*****************
*SRC=SODIMRA37A;SODIMRA37A;Connectors;Sockets;SO Dimm RA 3.7MM Row A
*SYM=ZPSLM
.SUBCKT  SODIMRA37A 1  2   3
*             IN OUT REF
R1 1 4 0.012
L4 4 5 1.91NH
C5 5 3 1.15PF
L5 5 6 1.91NH
R6 6 2 0.012
.ENDS  SODIMRA37A
*****************
*
*****************
*SRC=SODIMRA37B;SODIMRA37B;Connectors;Sockets;SO Dimm RA 3.7MM Row B
*SYM=ZPSLM
.SUBCKT  SODIMRA37B 1  2   3
*             IN OUT REF
R1 1 4 0.008
L4 4 5 1.15NH
C5 5 3 1.00PF
L5 5 6 1.15NH
R6 6 2 0.008
.ENDS  SODIMRA37B
*****************
*
********** TRANSMISSION LINE MODELS **************
*
*****************
*SRC=SODIMRA37ML;SODIMRA37ML;Connectors;Sockets;SO Dimm RA 3.7MM Median
*SYM=ZPSLM
.SUBCKT  SODIMRA37ML 1  2   3
*             IN OUT REF
R1 1 4 0.019
T4 4 3 2 3 Z0=53 TD=57PS
.ENDS  SODIMRA37ML
******************
*
*****************
*SRC=SODIMRA37AL;SODIMRA37AL;Connectors;Sockets;SO Dimm RA 3.7MM Row A
*SYM=ZPSLM
.SUBCKT  SODIMRA37AL 1  2   3
*             IN OUT REF
R1 1 4 0.023
T4 4 3 2 3 Z0=58 TD=66PS
.ENDS  SODIMRA37AL
******************
*
*****************
*SRC=SODIMRA37BL;SODIMRA37BL;Connectors;Sockets;SO Dimm RA 3.7MM Row B
*SYM=ZPSLM
.SUBCKT  SODIMRA37BL 1  2   3
*             IN OUT REF
R1 1 4 0.016
T4 4 3 2 3 Z0=48 TD=48PS
.ENDS  SODIMRA37BL
*****************************************************
* S.O. DIMM RIGHT ANGLE *   AMP Connector Catalog No.
*   3.3MM STACK HEIGHT  *
*      CONNECTOR        *
*************************
*  rev 5/13/97
*
*  !!!!!!!!!!!!!!!!!!!!!!!!!!!!!!!!!!!!!!!!!!!!!!!!!!!!!!
*
*  THE FOLLOWING RLC MODELS ARE APPROPRIATE
*  FOR EDGE SPEEDS OF 650PS OR SLOWER
*
*  FOR FASTER EDGE SPEED, THE LUMPED MODEL MUST
*  BE DIVIDED INTO SMALLER SECTIONS.  TYPICALLY,
*  THE SECTION'S PROPAGATION DELAY SHOULD BE
*  1/10TH OF THE EDGE SPEED.
*
*  !!!!!!!!!!!!!!!!!!!!!!!!!!!!!!!!!!!!!!!!!!!!!!!!!!!!!!
*
****************** RLC MODELS ********************
*
*****************
*SRC=SODIMRA33M;SODIMRA33M;Connectors;Sockets;SO Dimm RA 3.3MM Median
*SYM=ZPSLM
.SUBCKT  SODIMRA33M 1  2   3
*                   IN OUT REF
R1 1 4 0.010
L4 4 5 1.49NH
C5 5 3 1.02PF
L5 5 6 1.49NH
R6 6 2 0.010
.ENDS  SODIMRA33M
*****************
*
*****************
*SRC=SODIMRA33A;SODIMRA33A;Connectors;Sockets;SO Dimm RA 3.3MM Row A
*SYM=ZPSLM
.SUBCKT  SODIMRA33A 1  2   3
*                   IN OUT REF
R1 1 4 0.011
L4 4 5 1.87NH
C5 5 3 1.09PF
L5 5 6 1.87NH
R6 6 2 0.011
.ENDS  SODIMRA33A
*****************
*
*****************
*SRC=SODIMRA33B;SODIMRA33B;Connectors;Sockets;SO Dimm RA 3.3MM Row B
*SYM=ZPSLM
.SUBCKT  SODIMRA33B 1  2   3
*                   IN OUT REF
R1 1 4 0.008
L4 4 5 1.11NH
C5 5 3 0.94PF
L5 5 6 1.11NH
R6 6 2 0.008
.ENDS  SODIMRA33B
*****************
*
********** TRANSMISSION LINE MODELS **************
*
*****************
*SRC=SODIMRA33ML;SODIMRA33ML;Connectors;Sockets;SO Dimm RA 3.3MM Median
*SYM=ZPSLM
.SUBCKT  SODIMRA33ML 1  2   3