** Macanal, Analog macromodels generator, v.1.0 
** J. REMY, SGS THOMSON, ANACA Grenoble, Aug. 1992. 
** Standard Linear Ics Macromodels, 1993.  
** CONNECTIONS : 
* 1 INVERTING INPUT 
* 2 NON-INVERTING INPUT 
* 3 OUTPUT 
* 4 POSITIVE POWER SUPPLY 
* 5 NEGATIVE POWER SUPPLY
.SUBCKT LM101_ST 1 3 2 4 5 
********************************************************
.MODEL MDTH D IS=1E-8 KF=1.025862E-15 CJO=10F 
* INPUT STAGE
CIP 2 5 1.000000E-12
CIN 1 5 1.000000E-12
EIP 10 5 2 5 1
EIN 16 5 1 5 1
RIP 10 11 1.625000E+01
RIN 15 16 1.625000E+01
RIS 11 15 7.476714E+01
DIP 11 12 MDTH 400E-12
DIN 15 14 MDTH 400E-12
VOFP 12 13 DC 0.000000E+00
VOFN 13 14 DC 0
IPOL 13 5 1.600000E-05
CPS 11 15 2.5E-09
DINN 17 13 MDTH 400E-12
VIN 17 5 0.000000e+00
DINR 15 18 MDTH 400E-12
VIP 4 18 0.000000E+00
FCP 4 5 VOFP 1.115000E+02
FCN 5 4 VOFN 1.115000E+02
FIBP 2 5 VOFP 1.875000E-04
FIBN 5 1 VOFN 1.875000E-04 
* AMPLIFYING STAGE
FIP 5 19 VOFP 9.375000E+02
FIN 5 19 VOFN 9.375000E+02
RG1 19 5 9.981802E+05
RG2 19 4 9.981802E+05
CC 19 29 3.000000E-08
HZTP 30 29 VOFP 5.535733E+02
HZTN  5 30 VOFN 5.535733E+02
DOPM 19 22 MDTH 400E-12
DONM 21 19 MDTH 400E-12
HOPM 22 28 VOUT 5.000000E+03
VIPM 28 4 1.500000E+02
HONM 21 27 VOUT 5.000000E+03
VINM 5 27 1.500000E+02
EOUT 26 23 19 5 1
VOUT 23 5 0
ROUT 26 3 200
COUT 3 5 1.000000E-12
DOP 19 25 MDTH 400E-12
VOP 4 25 1.480450E+00
DON 24 19 MDTH 400E-12
VON 24 5 1.480450E+00
.ENDS 
 
 
** Macanal, Analog macromodels generator, v.1.0 
** J. REMY, SGS THOMSON, ANACA Grenoble, Aug. 1992. 
** Standard Linear Ics Macromodels, 1993.  
** CONNECTIONS : 
* 1 INVERTING INPUT 
* 2 NON-INVERTING INPUT 
* 3 OUTPUT 
* 4 POSITIVE POWER SUPPLY 
* 5 NEGATIVE POWER SUPPLY
.SUBCKT LM119_ST 1 3 2 4 5 
**********************************************************
.MODEL MDTH D IS=1E-11 KF=1.050321E-32 CJO=10F 
* INPUT STAGE
CIP 2 5 1.000000E-12
CIN 1 5 1.000000E-12
EIP 102 0 2 0 1
VIO 10 102 880U
EIN 16 0 1 0 1
RIP 10 11 6.500000E+01
RIN 15 16 6.500000E+01
RIS 11 15 1.939046E+02
DIP 11 12 MDTH 400E-12
DIN 15 14 MDTH 400E-12
VOFP 12 13 DC 0.000000E+00
VOFN 13 14 DC 0
IPOL 13 0 100E-06
CPS 11 15 3.7E-10
DINN 17 13 MDTH 400E-12
VIN 17 5 2.000000E+00
DINR 15 18 MDTH 400E-12
VIP 4 18 2.000000E+00
FCP1 4 0 VOFP 80
FCP2 0 4 VOFN 80
FCN1 0 5 VOFP 30
FCN2 5 0 VOFN 30
FIBP 2 0 VOFN 3E-03
FIBN 0 1 VOFP 3E-03 
* AMPLIFYING STAGE
RG1 5 19 2.85E+05
RG2 4 19 2.85E+05
DOP 19 25 MDTH 400E-12
VOP 4 25 1.097
DON 24 19 MDTH 400E-12
VON 24 5 1.097
FIP 0 19 VOFP -104
FIN 0 19 VOFN -104
EOUT 26 5 19 5 1
.MODEL NMOD NPN(IS=0.1E-09 BF=1500)
RBOUT 27 26 800K
QOUT 103 27 28 28 NMOD
RCEOUT 103 28 15.02E+07
REOUT 28 5 20
RSOUT 3 0 1E+12
VNUL 3 103 0
.ENDS 
 
** Macanal, Analog macromodels generator, v.1.0 
** J. REMY, SGS THOMSON, ANACA Grenoble, Aug. 1992. 
** Standard Linear Ics Macromodels, 1993.  
** CONNECTIONS : 
* 1 INVERTING INPUT 
* 2 NON-INVERTING INPUT 
* 3 OUTPUT 
* 4 POSITIVE POWER SUPPLY 
* 5 NEGATIVE POWER SUPPLY
.SUBCKT LM146_ST 1 3 2 4 5 
**********************************************************
.MODEL MDTH D IS=1E-8 KF=8.043451E-16 CJO=10F 
* INPUT STAGE
CIP 2 5 2.000000E-12
CIN 1 5 2.000000E-12
EIP 10 5 2 5 1
EIN 16 5 1 5 1
RIP 10 11 2.600000E+01
RIN 15 16 2.600000E+01
RIS 11 15 1.433696E+02
DIP 11 12 MDTH 400E-12
DIN 15 14 MDTH 400E-12
VOFP 12 13 DC 0.000000E+00
VOFN 13 14 DC 0
IPOL 13 5 1.000000E-05
CPS 11 15 1.480893E-09
DINN 17 13 MDTH 400E-12
VIN 17 5 1.500000e+00
DINR 15 18 MDTH 400E-12
VIP 4 18 1.500000E+00
FCP 4 5 VOFP 2.400000E+01
FCN 5 4 VOFN 2.400000E+01
FIBP 2 5 VOFN 6.000000E-03
FIBN 5 1 VOFP 6.000000E-03 
* AMPLIFYING STAGE
FIP 5 19 VOFP 3.500000E+02
FIN 5 19 VOFN 3.500000E+02
RG1 19 5 4.064019E+07
RG2 19 4 4.064019E+07
CC 19 29 7.000000E-09
HZTP 30 29 VOFP 8.414314E+02
HZTN  5 30 VOFN 8.414314E+02
DOPM 19 22 MDTH 400E-12
DONM 21 19 MDTH 400E-12
HOPM 22 28 VOUT 7.500000E+03
VIPM 28 4 1.500000E+02
HONM 21 27 VOUT 7.500000E+03
VINM 5 27 1.500000E+02
EOUT 26 23 19 5 1
VOUT 23 5 0
ROUT 26 3 200
COUT 3 5 1.000000E-12
DOP 19 25 MDTH 400E-12
VOP 4 25 1.462230E+00
DON 24 19 MDTH 400E-12
VON 24 5 1.462230E+00
.ENDS 
 
** Standard Linear Ics Macromodels, 1993.  
** CONNECTIONS : 
* 1 INVERTING INPUT 
* 2 NON-INVERTING INPUT 
* 3 OUTPUT 
* 4 POSITIVE POWER SUPPLY 
* 5 NEGATIVE POWER SUPPLY
.SUBCKT LM833_ST 1 3 2 4 5 
**********************************************************
.MODEL MDTH D IS=1E-8 KF=2.286238E-16 CJO=10F 
* INPUT STAGE
CIP 2 5 1.200000E-11
CIN 1 5 1.200000E-11
EIP 10 5 2 5 1
EIN 16 5 1 5 1
RIP 10 11 2.363636E+00
RIN 15 16 2.363636E+00
RIS 11 15 1.224040E+01
DIP 11 12 MDTH 400E-12
DIN 15 14 MDTH 400E-12
VOFP 12 13 DC 0
VOFN 13 14 DC 0
IPOL 13 5 1.100000E-04
CPS 11 15 2.35E-09
DINN 17 13 MDTH 400E-12
VIN 17 5 1.000000e+00
DINR 15 18 MDTH 400E-12
VIP 4 18 1.000000E+00
FCP 4 5 VOFP 1.718182E+01
FCN 5 4 VOFN 1.718182E+01
FIBP 2 5 VOFN 4.545455E-03
FIBN 5 1 VOFP 4.545455E-03 
* AMPLIFYING STAGE
FIP 5 19 VOFP 9.545455E+02
FIN 5 19 VOFN 9.545455E+02
CC 19 29 1.500000E-08
HZTP 30 29 VOFP 1.523529E+02
HZTN  5 30 VOFN 1.523529E+02
DOPM 51 22 MDTH 400E-12
DONM 21 52 MDTH 400E-12
HOPM 22 28 VOUT 5.172414E+03
VIPM 28 4 1.500000E+02
HONM 21 27 VOUT 4.054054E+03
VINM 5 27 1.500000E+02
DBIDON1 19 53 MDTH 400E-12
V1 51 53 0.68
DBIDON2 54 19 MDTH 400E-12
V2 54 52 0.68
RG11 51 5 3.04E+05
RG12 51 4 3.04E+05
RG21 52 5 0.6072E+05
RG22 52 4 0.6072E+05
E1 50 40 51 0 1
E2 40 39 52 0 1
EDEC1 38 39 4 0 0.5
EDEC2 0 38 5 0 0.5
DOP 51 25 MDTH 400E-12
VOP 4 25 1.474575E+00
DON 24 52 MDTH 400E-12
VON 24 5 1.474575E+00
RAJUS 50 5 1E12
GCOMP 5 4 4 5 8.1566068E-04
RPM1 5 80 1E+06
RPM2 4 80 1E+06
GAVPH 5 82 50 80 3.26E-03
RAVPHGH 82 4 613
RAVPHGB 82 5 613
RAVPHDH 82 83 1000
RAVPHDB 82 84 1000
CAVPHH 4 83 0.159E-09
CAVPHB 5 84 0.159E-09
EOUT 26 23 82 5 1
VOUT 23 5 0
ROUT 26 3 4.780354E+01
COUT 3 5 1.000000E-12
.ENDS 
** Macanal, Analog macromodels generator, v.1.0 
** J. REMY, SGS THOMSON, ANACA Grenoble, Aug. 1992. 
** Standard Linear Ics Macromodels, 1993.  
** CONNECTIONS : 
* 1 INVERTING INPUT 
* 2 NON-INVERTING INPUT 
* 3 OUTPUT 
* 4 POSITIVE POWER SUPPLY 
* 5 NEGATIVE POWER SUPPLY
.SUBCKT LS204_ST 1 3 2 4 5 
**********************************************************
.MODEL MDTH D IS=1E-8 KF=6.565195E-17 CJO=10F 
* INPUT STAGE
CIP 2 5 1.000000E-12
CIN 1 5 1.000000E-12
EIP 10 5 2 5 1
EIN 16 5 1 5 1
RIP 10 11 2.600000E+01
RIN 15 16 2.600000E+01
RIS 11 15 1.061852E+02
DIP 11 12 MDTH 400E-12
DIN 15 14 MDTH 400E-12
VOFP 12 13 DC 0
VOFN 13 14 DC 0
IPOL 13 5 1.000000E-05
CPS 11 15 12.47E-10
DINN 17 13 MDTH 400E-12
VIN 17 5 1.500000e+00
DINR 15 18 MDTH 400E-12
VIP 4 18 1.500000E+00
FCP 4 5 VOFP 3.400000E+01
FCN 5 4 VOFN 3.400000E+01
FIBP 2 5 VOFN 1.000000E-02
FIBN 5 1 VOFP 1.000000E-02 
* AMPLIFYING STAGE
FIP 5 19 VOFP 9.000000E+02
FIN 5 19 VOFN 9.000000E+02
RG1 19 5 1.727221E+06
RG2 19 4 1.727221E+06
CC 19 5 6.000000E-09
DOPM 19 22 MDTH 400E-12
DONM 21 19 MDTH 400E-12
HOPM 22 28 VOUT 6.521739E+03
VIPM 28 4 1.500000E+02
HONM 21 27 VOUT 6.521739E+03
VINM 5 27 1.500000E+02
GCOMP 5 4 4 5 6.485084E-04
RPM1 5 80 1E+06
RPM2 4 80 1E+06
GAVPH 5 82 19 80 2.59E-03
RAVPHGH 82 4 771
RAVPHGB 82 5 771
RAVPHDH 82 83 1000
RAVPHDB 82 84 1000
CAVPHH 4 83 0.331E-09
CAVPHB 5 84 0.331E-09
EOUT 26 23 82 5 1
VOUT 23 5 0
ROUT 26 3 6.498455E+01
COUT 3 5 1.000000E-12
DOP 19 25 MDTH 400E-12
VOP 4 25 1.742230E+00
DON 24 19 MDTH 400E-12
VON 24 5 1.742230E+00
.ENDS 
** Macanal, Analog macromodels generator, v.1.0 
** J. REMY, SGS THOMSON, ANACA Grenoble, Aug. 1992. 
** Standard Linear Ics Macromodels, 1993.  
** CONNECTIONS : 
* 1 INVERTING INPUT 
* 2 NON-INVERTING INPUT 
* 3 OUTPUT 
* 4 POSITIVE POWER SUPPLY 
* 5 NEGATIVE POWER SUPPLY
.SUBCKT LS404_ST 1 3 2 4 5 
**********************************************************
.MODEL MDTH D IS=1E-8 KF=6.647807E-16 CJO=10F 
* INPUT STAGE
CIP 2 5 1.000000E-12
CIN 1 5 1.000000E-12
EIP 10 5 2 5 1
EIN 16 5 1 5 1
RIP 10 11 1.300000E+01
RIN 15 16 1.300000E+01
RIS 11 15 6.437882E+01
DIP 11 12 MDTH 400E-12
DIN 15 14 MDTH 400E-12
VOFP 12 13 DC 0
VOFN 13 14 DC 0
IPOL 13 5 2.000000E-05
CPS 11 15 9.75E-10
DINN 17 13 MDTH 400E-12
VIN 17 5 0.000000e+00
DINR 15 18 MDTH 400E-12
VIP 4 18 1.500000E+00
FCP 4 5 VOFP 1.525000E+01
FCN 5 4 VOFN 1.525000E+01
FIBP 2 5 VOFN 5.000000E-03
FIBN 5 1 VOFP 5.000000E-03 
* AMPLIFYING STAGE
FIP 5 19 VOFP 1.125000E+03
FIN 5 19 VOFN 1.125000E+03
RG1 19 5 6.512062E+05
RG2 19 4 6.512062E+05
CC 19 29 1.500000E-08
HZTP 30 29 VOFP 8.944787E+02
HZTN  5 30 VOFN 8.944787E+02
DOPM 19 22 MDTH 400E-12
DONM 21 19 MDTH 400E-12
HOPM 22 28 VOUT 6.521739E+03
VIPM 28 4 1.500000E+02
HONM 21 27 VOUT 6.521739E+03
VINM 5 27 1.500000E+02
GCOMP 5 4 4 5 7.485029E-04
RPM1 5 80 1E+09
RPM2 4 80 1E+09
GAVPH 5 82 19 80 2.99E-03
RAVPHGH 82 4 668
RAVPHGB 82 5 668
RAVPHDH 82 83 1000
RAVPHDB 82 84 1000
CAVPHH 4 83 0.352E-09
CAVPHB 5 84 0.352E-09
EOUT 26 23 82 5 1
VOUT 23 5 0
ROUT 26 3 150
COUT 3 5 1.000000E-12
DOP 19 25 MDTH 400E-12
VOP 4 25 1.785252E+00
DON 24 19 MDTH 400E-12
VON 24 5 1.785252E+00
.ENDS 
 
** Standard Linear Ics Macromodels, 1993.  
** CONNECTIONS : 
* 1 INVERTING INPUT 
* 2 NON-INVERTING INPUT 
* 3 OUTPUT 
* 4 POSITIVE POWER SUPPLY 
* 5 NEGATIVE POWER SUPPLY
.SUBCKT TDA2320_ST 1 3 2 4 5 
**********************************************************
.MODEL MDTH D IS=1E-8 KF=6.565195E-17 CJO=10F 
* INPUT STAGE
CIP 2 5 1.000000E-12
CIN 1 5 1.000000E-12
EIP 10 5 2 5 1
EIN 16 5 1 5 1
RIP 10 11 2.600000E+01
RIN 15 16 2.600000E+01
RIS 11 15 1.061852E+02
DIP 11 12 MDTH 400E-12
DIN 15 14 MDTH 400E-12
VOFP 12 13 DC 0
VOFN 13 14 DC 0
IPOL 13 5 1.000000E-05
CPS 11 15 12.47E-10
DINN 17 13 MDTH 400E-12
VIN 17 5 1.500000e+00
DINR 15 18 MDTH 400E-12
VIP 4 18 1.500000E+00
FCP 4 5 VOFP 3.400000E+01
FCN 5 4 VOFN 3.400000E+01
FIBP 2 5 VOFN 1.000000E-02
FIBN 5 1 VOFP 1.000000E-02 
* AMPLIFYING STAGE
FIP 5 19 VOFP 9.000000E+02
FIN 5 19 VOFN 9.000000E+02
RG1 19 5 1.727221E+06
RG2 19 4 1.727221E+06
CC 19 5 6.000000E-09
DOPM 19 22 MDTH 400E-12
DONM 21 19 MDTH 400E-12
HOPM 22 28 VOUT 6.521739E+03
VIPM 28 4 1.500000E+02
HONM 21 27 VOUT 6.521739E+03
VINM 5 27 1.500000E+02
GCOMP 5 4 4 5 6.485084E-04
RPM1 5 80 1E+06
RPM2 4 80 1E+06
GAVPH 5 82 19 80 2.59E-03
RAVPHGH 82 4 771
RAVPHGB 82 5 771
RAVPHDH 82 83 1000
RAVPHDB 82 84 1000
CAVPHH 4 83 0.331E-09
CAVPHB 5 84 0.331E-09
EOUT 26 23 82 5 1
VOUT 23 5 0
ROUT 26 3 6.498455E+01
COUT 3 5 1.000000E-12
DOP 19 25 MDTH 400E-12
VOP 4 25 1.742230E+00
DON 24 19 MDTH 400E-12
VON 24 5 1.742230E+00
.ENDS 
** Standard Linear Ics Macromodels, 1993.  
** CONNECTIONS : 
* 1 INVERTING INPUT 
* 2 NON-INVERTING INPUT 
* 3 OUTPUT 
* 4 POSITIVE POWER SUPPLY 
* 5 NEGATIVE POWER SUPPLY
.SUBCKT TDA2320A_ST 1 3 2 4 5 
**********************************************************
.MODEL MDTH D IS=1E-8 KF=6.565195E-17 CJO=10F 
* INPUT STAGE
CIP 2 5 1.000000E-12
CIN 1 5 1.000000E-12
EIP 10 5 2 5 1
EIN 16 5 1 5 1
RIP 10 11 2.600000E+01
RIN 15 16 2.600000E+01
RIS 11 15 1.061852E+02
DIP 11 12 MDTH 400E-12
DIN 15 14 MDTH 400E-12
VOFP 12 13 DC 0
VOFN 13 14 DC 0
IPOL 13 5 1.000000E-05
CPS 11 15 12.47E-10
DINN 17 13 MDTH 400E-12
VIN 17 5 1.500000e+00
DINR 15 18 MDTH 400E-12
VIP 4 18 1.500000E+00
FCP 4 5 VOFP 3.400000E+01
FCN 5 4 VOFN 3.400000E+01
FIBP 2 5 VOFN 1.000000E-02
FIBN 5 1 VOFP 1.000000E-02 
* AMPLIFYING STAGE
FIP 5 19 VOFP 9.000000E+02
FIN 5 19 VOFN 9.000000E+02
RG1 19 5 1.727221E+06
RG2 19 4 1.727221E+06
CC 19 5 6.000000E-09
DOPM 19 22 MDTH 400E-12
DONM 21 19 MDTH 400E-12
HOPM 22 28 VOUT 6.521739E+03
VIPM 28 4 1.500000E+02
HONM 21 27 VOUT 6.521739E+03
VINM 5 27 1.500000E+02
GCOMP 5 4 4 5 6.485084E-04
RPM1 5 80 1E+06
RPM2 4 80 1E+06
GAVPH 5 82 19 80 2.59E-03
RAVPHGH 82 4 771
RAVPHGB 82 5 771
RAVPHDH 82 83 1000
RAVPHDB 82 84 1000
CAVPHH 4 83 0.331E-09
CAVPHB 5 84 0.331E-09
EOUT 26 23 82 5 1
VOUT 23 5 0
ROUT 26 3 6.498455E+01
COUT 3 5 1.000000E-12
DOP 19 25 MDTH 400E-12
VOP 4 25 1.742230E+00
DON 24 19 MDTH 400E-12
VON 24 5 1.742230E+00
.ENDS 
** Macanal, Analog macromodels generator, v.1.0 
** J. REMY, SGS THOMSON, ANACA Grenoble, Aug. 1992. 
** Standard Linear Ics Macromodels, 1993.  
** CONNECTIONS : 
* 1 INVERTING INPUT 
* 2 NON-INVERTING INPUT 
* 3 OUTPUT 
* 4 POSITIVE POWER SUPPLY 
* 5 NEGATIVE POWER SUPPLY
.SUBCKT TDB7910_ST 1 3 2 4 5 
**********************************************************
.MODEL MDTH D IS=1E-8 KF=8.666254E-32 CJO=10F 
* INPUT STAGE
CIP 2 5 1.000000E-12
CIN 1 5 1.000000E-12
EIP 10 5 2 5 1
EIN 16 5 1 5 1
RIP 10 11 7.878788E+00
RIN 15 16 7.878788E+00
RIS 11 15 3.405258E+01
DIP 11 12 MDTH 400E-12
DIN 15 14 MDTH 400E-12
VOFP 12 13 DC 0
VOFN 13 14 DC 0
IPOL 13 5 3.300000E-05
CPS 11 15 6.842422E-09
DINN 17 13 MDTH 400E-12
VIN 17 5 2.000000e+00
DINR 15 18 MDTH 400E-12
VIP 4 18 2.000000E+00
FCP 4 5 VOFP 1.415152E+01
FCN 5 4 VOFN 1.415152E+01
FIBP 2 5 VOFN 4.848485E-03
FIBN 5 1 VOFP 4.848485E-03 
* AMPLIFYING STAGE
FIP 5 19 VOFP 4.318182E+02
FIN 5 19 VOFN 4.318182E+02
RG1 19 5 2.137314E+05
RG2 19 4 2.137314E+05
CC 19 29 2.800000E-08
HZTP 30 29 VOFP 4.262675E+02
HZTN  5 30 VOFN 4.262675E+02
DOPM 19 22 MDTH 400E-12
DONM 21 19 MDTH 400E-12
HOPM 22 28 VOUT 194.83
VIPM 28 4 94.5
HONM 21 27 VOUT 194.83
VINM 5 27 94.5
EOUT 26 23 19 5 1
VOUT 23 5 0
ROUT 26 3 20
COUT 3 5 1.000000E-12
DOP 3 25 MDTH 400E-12
VOP 4 25 3.773272E+00
DON 24 3 MDTH 400E-12
VON 24 5 3.773272E+00
.ENDS 
** Macanal, Analog macromodels generator, v.1.0 
** J. REMY, SGS THOMSON, ANACA Grenoble, Aug. 1992. 
** Standard Linear Ics Macromodels, 1993.  
** CONNECTIONS : 
* 1 INVERTING INPUT 
* 2 NON-INVERTING INPUT 
* 3 OUTPUT 
* 4 POSITIVE POWER SUPPLY 
* 5 NEGATIVE POWER SUPPLY
.SUBCKT TEB1033_ST 1 3 2 4 5 
**********************************************************
.MODEL MDTH D IS=1E-8 KF=1.313592E-16 CJO=10F 
* INPUT STAGE
CIP 2 5 1.000000E-12
CIN 1 5 1.000000E-12
EIP 10 5 2 5 1
EIN 16 5 1 5 1
RIP 10 11 1.300000E+01
RIN 15 16 1.300000E+01
RIS 11 15 1.119206E+02
DIP 11 12 MDTH 400E-12
DIN 15 14 MDTH 400E-12
VOFP 12 13 DC 0
VOFN 13 14 DC 0
IPOL 13 5 2.000000E-05
CPS 11 15 7.60E-10
DINN 17 13 MDTH 400E-12
VIN 17 5 3.000000e+00
DINR 15 18 MDTH 400E-12
VIP 4 18 3.000000E+00
FCP 4 5 VOFP 2.400000E+01
FCN 5 4 VOFN 2.400000E+01
FIBP 2 5 VOFN 5.000000E-03
FIBN 5 1 VOFP 5.000000E-03 
* AMPLIFYING STAGE
FIP 5 19 VOFP 1.150000E+03
FIN 5 19 VOFN 1.150000E+03
RG1 19 5 1.670256E+06
RG2 19 4 1.670256E+06
CC 19 29 2.300000E-08
HZTP 30 29 VOFP 7.936240E+02
HZTN  5 30 VOFN 7.936240E+02
DOPM 19 22 MDTH 400E-12
DONM 21 19 MDTH 400E-12
HOPM 22 28 VOUT 6.521739E+03
VIPM 28 4 1.500000E+02
HONM 21 27 VOUT 6.521739E+03
VINM 5 27 1.500000E+02
GCOMP 5 4 4 5 6.393861E-04
RPM1 5 80 1E+06
RPM2 4 80 1E+06
GAVPH 5 82 19 80 2.56E-03
RAVPHGH 82 4 782
RAVPHGB 82 5 782
RAVPHDH 82 83 1000
RAVPHDB 82 84 1000
CAVPHH 4 83 0.595E-09
CAVPHB 5 84 0.595E-09
EOUT 26 23 82 5 1
VOUT 23 5 0
ROUT 26 3 8.858633E+01
COUT 3 5 1.000000E-12
DOP 19 25 MDTH 400E-12
VOP 4 25 1.760252E+00
DON 24 19 MDTH 400E-12
VON 24 5 1.760252E+00
.ENDS 
 
** Macanal, Analog macromodels generator, v.1.0 
** J. REMY, SGS THOMSON, ANACA Grenoble, Aug. 1992. 
** Standard Linear Ics Macromodels, 1993.  
** CONNECTIONS : 
* 1 INVERTING INPUT 
* 2 NON-INVERTING INPUT 
* 3 OUTPUT 
* 4 POSITIVE POWER SUPPLY 
* 5 NEGATIVE POWER SUPPLY
.SUBCKT TS271H_ST 1 3 2 4 5 
**********************************************************
.MODEL MDTH D IS=1E-8 KF=4.153070E-14 CJO=10F 
* INPUT STAGE
CIP 2 5 1.000000E-12
CIN 1 5 1.000000E-12
EIP 10 5 2 5 1
EIN 16 5 1 5 1
RIP 10 11 5.777778E+00
RIN 15 16 5.777778E+00
RIS 11 15 2.509675E+00
DIP 11 12 MDTH 400E-12
DIN 15 14 MDTH 400E-12
VOFP 12 13 DC 0.000000E+00
VOFN 13 14 DC 0
IPOL 13 5 4.500000E-05
CPS 11 15 1.5E-08
DINN 17 13 MDTH 400E-12
VIN 17 5 -0.5000000e+00
DINR 15 18 MDTH 400E-12
VIP 4 18 1.600000E+00
FCP 4 5 VOFP 3.5
FCN 5 4 VOFN 3.5 
* AMPLIFYING STAGE
FIP 5 19 VOFP 7.000000E+02
FIN 5 19 VOFN 7.000000E+02
RG1 19 5 2.777406E+05
RG2 19 4 2.777406E+05
CC 19 29 7.000000E-09
HZTP 30 29 VOFP 1.787279E+03
HZTN  5 30 VOFN 1.787279E+03
DOPM 19 22 MDTH 400E-12
DONM 21 19 MDTH 400E-12
HOPM 22 28 VOUT 2500
VIPM 28 4 150
HONM 21 27 VOUT 3325
VINM 5 27 150
EOUT 26 23 19 5 1
VOUT 23 5 0
ROUT 26 3 100
COUT 3 5 1.600000E-12
DOP 19 25 MDTH 400E-12
VOP 4 25 2.324208E+00
DON 24 19 MDTH 400E-12
VON 24 5 9.32083E-01
.ENDS 
** Macanal, Analog macromodels generator, v.1.0 
** J. REMY, SGS THOMSON, ANACA Grenoble, Aug. 1992. 
** Standard Linear Ics Macromodels, 1993.  
** CONNECTIONS : 
* 1 INVERTING INPUT 
* 2 NON-INVERTING INPUT 
* 3 OUTPUT 
* 4 POSITIVE POWER SUPPLY 
* 5 NEGATIVE POWER SUPPLY
.SUBCKT TS271L_ST 1 3 2 4 5 
**********************************************************
.MODEL MDTH D IS=1E-8 KF=5.029059E-14 CJO=10F 
* INPUT STAGE
CIP 2 5 7.450000E-13
CIN 1 5 7.450000E-13
EIP 10 5 2 5 1
EIN 16 5 1 5 1
RIP 10 11 2.600000E+01
RIN 15 16 2.600000E+01
RIS 11 15 2.503337E+02
DIP 11 12 MDTH 400E-12
DIN 15 14 MDTH 400E-12
VOFP 12 13 DC 0.000000E+00
VOFN 13 14 DC 0
IPOL 13 5 1.000000E-05
CPS 11 15 8.650557E-09
DINN 17 13 MDTH 400E-12
VIN 17 5 -0.5000000e+00
DINR 15 18 MDTH 400E-12
VIP 4 18 1.600000E+00
FCP 4 5 VOFP 0.15
FCN 5 4 VOFN 0.15
* AMPLIFYING STAGE
FIP 5 19 VOFP 2.800000E+01
FIN 5 19 VOFN 2.800000E+01
RG1 19 5 4.504399E+07
RG2 19 4 4.504399E+07
CC 19 29 7.000000E-09
HZTP 30 29 VOFP 0.55E+04
HZTN  5 30 VOFN 0.55E+04
DOPM 19 22 MDTH 400E-12
DONM 21 19 MDTH 400E-12
HOPM 22 28 VOUT 2500
VIPM 28 4 150
HONM 21 27 VOUT 3325
VINM 5 27 150
EOUT 26 23 19 5 1
VOUT 23 5 0
ROUT 26 3 100
COUT 3 5 1.600000E-12
DOP 19 25 MDTH 400E-12
VOP 4 25 1.742230E+00
DON 24 19 MDTH 400E-12
VON 24 5 8.3E-01
.ENDS 
 
** Macanal, Analog macromodels generator, v.1.0 
** J. REMY, SGS THOMSON, ANACA Grenoble, Aug. 1992. 
** Standard Linear Ics Macromodels, 1993.  
** CONNECTIONS : 
* 1 INVERTING INPUT 
* 2 NON-INVERTING INPUT 
* 3 OUTPUT 
* 4 POSITIVE POWER SUPPLY 
* 5 NEGATIVE POWER SUPPLY
.SUBCKT TS271M_ST 1 3 2 4 5 
**********************************************************
.MODEL MDTH D IS=1E-8 KF=7.404371E-15 CJO=10F 
* INPUT STAGE
CIP 2 5 1.000000E-12
CIN 1 5 1.000000E-12
EIP 10 5 2 5 1
EIN 16 5 1 5 1
RIP 10 11 5.200000E+01
RIN 15 16 5.200000E+01
RIS 11 15 6.746099E+01
DIP 11 12 MDTH 400E-12
DIN 15 14 MDTH 400E-12
VOFP 12 13 DC 0.000000E+00
VOFN 13 14 DC 0
IPOL 13 5 5.000000E-06
CPS 11 15 1.464357E-09
DINN 17 13 MDTH 400E-12
VIN 17 5 -0.5000000e+00
DINR 15 18 MDTH 400E-12
VIP 4 18 1.600000E+00
FCP 4 5 VOFP 4.8
FCN 5 4 VOFN 4.8 
* AMPLIFYING STAGE
FIP 5 19 VOFP 8.400000E+02
FIN 5 19 VOFN 8.400000E+02
RG1 19 5 3.160459E+06
RG2 19 4 3.160459E+06
CC 19 29 7.000000E-09
HZTP 30 29 VOFP 1.7E+04
HZTN  5 30 VOFN 1.7E+04
DOPM 19 22 MDTH 400E-12
DONM 21 19 MDTH 400E-12
HOPM 22 28 VOUT 2500
VIPM 28 4 150
HONM 21 27 VOUT 3325
VINM 5 27 150
EOUT 26 23 19 5 1
VOUT 23 5 0
ROUT 26 3 100
COUT 3 5 1.600000E-12
DOP 19 25 MDTH 400E-12
VOP 4 25 1.924208E+00
DON 24 19 MDTH 400E-12
VON 24 5 9.32083E-01
.ENDS 
** Macanal, Analog macromodels generator, v.1.0 
** J. REMY, SGS THOMSON, ANACA Grenoble, Aug. 1992. 
** Standard Linear Ics Macromodels, 1993.  
** CONNECTIONS : 
* 1 INVERTING INPUT 
* 2 NON-INVERTING INPUT 
* 3 OUTPUT 
* 4 POSITIVE POWER SUPPLY 
* 5 NEGATIVE POWER SUPPLY
.SUBCKT TS272_ST 1 3 2 4 5 
**********************************************************
.MODEL MDTH D IS=1E-8 KF=4.153126E-14 CJO=10F 
* INPUT STAGE
CIP 2 5 1.000000E-12
CIN 1 5 1.000000E-12
EIP 10 5 2 5 1
EIN 16 5 1 5 1
RIP 10 11 5.777778E+00
RIN 15 16 5.777778E+00
RIS 11 15 3.301276E+00
DIP 11 12 MDTH 400E-12
DIN 15 14 MDTH 400E-12
VOFP 12 13 DC 0.000000E+00
VOFN 13 14 DC 0
IPOL 13 5 4.500000E-05
CPS 11 15 5.678186E-09
DINN 17 13 MDTH 400E-12
VIN 17 5 -0.500000e+00
DINR 15 18 MDTH 400E-12
VIP 4 18 1.600000E+00
FCP 4 5 VOFP 2.122222E+01
FCN 5 4 VOFN 2.122222E+01 
* AMPLIFYING STAGE
FIP 5 19 VOFP 8.555556E+02
FIN 5 19 VOFN 8.555556E+02
RG1 19 5 1.825153E+05
RG2 19 4 1.825153E+05
CC 19 29 7.000000E-09
HZTP 30 29 VOFP 1.435497E+03
HZTN  5 30 VOFN 1.435497E+03
DOPM 19 22 MDTH 400E-12
DONM 21 19 MDTH 400E-12
HOPM 22 28 VOUT 2500
VIPM 28 4 150
HONM 21 27 VOUT 3325
VINM 5 27 150
EOUT 26 23 19 5 1
VOUT 23 5 0
ROUT 26 3 50
COUT 3 5 1.600000E-12
DOP 19 25 MDTH 400E-12
VOP 4 25 2.381336E+00
DON 24 19 MDTH 400E-12
VON 24 5 9.19E-01
.ENDS 
** Macanal, Analog macromodels generator, v.1.0 
** J. REMY, SGS THOMSON, ANACA Grenoble, Aug. 1992. 
** Standard Linear Ics Macromodels, 1993.  
** CONNECTIONS : 
* 1 INVERTING INPUT 
* 2 NON-INVERTING INPUT 
* 3 OUTPUT 
* 4 POSITIVE POWER SUPPLY 
* 5 NEGATIVE POWER SUPPLY
.SUBCKT TS274_ST 1 3 2 4 5 
**********************************************************
.MODEL MDTH D IS=1E-8 KF=4.153126E-14 CJO=10F 
* INPUT STAGE
CIP 2 5 1.000000E-12
CIN 1 5 1.000000E-12
EIP 10 5 2 5 1
EIN 16 5 1 5 1
RIP 10 11 5.777778E+00
RIN 15 16 5.777778E+00
RIS 11 15 3.301276E+00
DIP 11 12 MDTH 400E-12
DIN 15 14 MDTH 400E-12
VOFP 12 13 DC 0.000000E+00
VOFN 13 14 DC 0
IPOL 13 5 4.500000E-05
CPS 11 15 5.678186E-09
DINN 17 13 MDTH 400E-12
VIN 17 5 -0.500000e+00
DINR 15 18 MDTH 400E-12
VIP 4 18 1.600000E+00
FCP 4 5 VOFP 2.122222E+01
FCN 5 4 VOFN 2.122222E+01 
* AMPLIFYING STAGE
FIP 5 19 VOFP 8.555556E+02
FIN 5 19 VOFN 8.555556E+02
RG1 19 5 1.825153E+05
RG2 19 4 1.825153E+05
CC 19 29 7.000000E-09
HZTP 30 29 VOFP 1.435497E+03
HZTN  5 30 VOFN 1.435497E+03
DOPM 19 22 MDTH 400E-12
DONM 21 19 MDTH 400E-12
HOPM 22 28 VOUT 2500
VIPM 28 4 150
HONM 21 27 VOUT 3325
VINM 5 27 150
EOUT 26 23 19 5 1
VOUT 23 5 0
ROUT 26 3 50
COUT 3 5 1.600000E-12
DOP 19 25 MDTH 400E-12
VOP 4 25 2.381336E+00
DON 24 19 MDTH 400E-12
VON 24 5 9.19E-01
.ENDS 
** Macanal, Analog macromodels generator, v.1.0 
** J. REMY, SGS THOMSON, ANACA Grenoble, Aug. 1992. 
** Standard Linear Ics Macromodels, 1993.  
** CONNECTIONS : 
* 1 INVERTING INPUT 
* 2 NON-INVERTING INPUT 
* 3 OUTPUT 
* 4 POSITIVE POWER SUPPLY 
* 5 NEGATIVE POWER SUPPLY
.SUBCKT TS27L2_ST 1 3 2 4 5 
**********************************************************
.MODEL MDTH D IS=1E-8 KF=5.029059E-14 CJO=10F 
* INPUT STAGE
CIP 2 5 7.450000E-13
CIN 1 5 7.450000E-13
EIP 10 5 2 5 1
EIN 16 5 1 5 1
RIP 10 11 2.600000E+01
RIN 15 16 2.600000E+01
RIS 11 15 2.503337E+02
DIP 11 12 MDTH 400E-12
DIN 15 14 MDTH 400E-12
VOFP 12 13 DC 0.000000E+00
VOFN 13 14 DC 0
IPOL 13 5 1.000000E-05
CPS 11 15 8.650557E-09
DINN 17 13 MDTH 400E-12
VIN 17 5 -0.5000000e+00
DINR 15 18 MDTH 400E-12
VIP 4 18 1.600000E+00 
* AMPLIFYING STAGE
FIP 5 19 VOFP 2.800000E+01
FIN 5 19 VOFN 2.800000E+01
RG1 19 5 4.504399E+07
RG2 19 4 4.504399E+07
CC 19 29 7.000000E-09
HZTP 30 29 VOFP 0.37E+04
DOPM 19 22 MDTH 400E-12
DONM 21 19 MDTH 400E-12
HOPM 22 28 VOUT 2500
VIPM 28 4 150
HONM 21 27 VOUT 3750
VINM 5 27 150
EOUT 26 23 19 5 1
VOUT 23 5 0
ROUT 26 3 100
COUT 3 5 1.600000E-12
DOP 19 25 MDTH 400E-12
VOP 4 25 1.742230E+00
DON 24 19 MDTH 400E-12
VON 24 5 8.3E-01
.ENDS 
** Macanal, Analog macromodels generator, v.1.0 
** J. REMY, SGS THOMSON, ANACA Grenoble, Aug. 1992. 
** Standard Linear Ics Macromodels, 1993.  
** CONNECTIONS : 
* 1 INVERTING INPUT 
* 2 NON-INVERTING INPUT 
* 3 OUTPUT 
* 4 POSITIVE POWER SUPPLY 
* 5 NEGATIVE POWER SUPPLY
.SUBCKT TS27L4_ST 1 3 2 4 5 
**********************************************************
.MODEL MDTH D IS=1E-8 KF=5.029059E-14 CJO=10F 
* INPUT STAGE
CIP 2 5 7.450000E-13
CIN 1 5 7.450000E-13
EIP 10 5 2 5 1
EIN 16 5 1 5 1
RIP 10 11 2.600000E+01
RIN 15 16 2.600000E+01
RIS 11 15 2.503337E+02
DIP 11 12 MDTH 400E-12
DIN 15 14 MDTH 400E-12
VOFP 12 13 DC 0.000000E+00
VOFN 13 14 DC 0
IPOL 13 5 1.000000E-05
CPS 11 15 8.650557E-09
DINN 17 13 MDTH 400E-12
VIN 17 5 -0.5000000e+00
DINR 15 18 MDTH 400E-12
VIP 4 18 1.600000E+00 
* AMPLIFYING STAGE
FIP 5 19 VOFP 2.800000E+01
FIN 5 19 VOFN 2.800000E+01
RG1 19 5 4.504399E+07
RG2 19 4 4.504399E+07
CC 19 29 7.000000E-09
HZTP 30 29 VOFP 0.37E+04
DOPM 19 22 MDTH 400E-12
DONM 21 19 MDTH 400E-12
HOPM 22 28 VOUT 2500
VIPM 28 4 150
HONM 21 27 VOUT 3750
VINM 5 27 150
EOUT 26 23 19 5 1
VOUT 23 5 0
ROUT 26 3 100
COUT 3 5 1.600000E-12
DOP 19 25 MDTH 400E-12
VOP 4 25 1.742230E+00
DON 24 19 MDTH 400E-12
VON 24 5 8.3E-01
.ENDS 
** Macanal, Analog macromodels generator, v.1.0 
** J. REMY, SGS THOMSON, ANACA Grenoble, Aug. 1992. 
** Standard Linear Ics Macromodels, 1993.  
** CONNECTIONS : 
* 1 INVERTING INPUT 
* 2 NON-INVERTING INPUT 
* 3 OUTPUT 
* 4 POSITIVE POWER SUPPLY 
* 5 NEGATIVE POWER SUPPLY
.SUBCKT TS27M2_ST 1 3 2 4 5 
**********************************************************
.MODEL MDTH D IS=1E-8 KF=7.405288E-15 CJO=10F 
* INPUT STAGE
CIP 2 5 1.000000E-12
CIN 1 5 1.000000E-12
EIP 10 5 2 5 1
EIN 16 5 1 5 1
RIP 10 11 5.200000E+01
RIN 15 16 5.200000E+01
RIS 11 15 1.337376E+02
DIP 11 12 MDTH 400E-12
DIN 15 14 MDTH 400E-12
VOFP 12 13 DC 0.000000E+00
VOFN 13 14 DC 0
IPOL 13 5 5.000000E-06
CPS 11 15 7.175351E-10
DINN 17 13 MDTH 400E-12
VIN 17 5 -0.5000000e+00
DINR 15 18 MDTH 400E-12
VIP 4 18 1.600000E+00
FCP 4 5 VOFP 2.900000E+01
FCN 5 4 VOFN 2.900000E+01 
* AMPLIFYING STAGE
FIP 5 19 VOFP 8.400000E+02
FIN 5 19 VOFN 8.400000E+02
RG1 19 5 2.212321E+06
RG2 19 4 2.212321E+06
CC 19 29 7.000000E-09
HZTP 30 29 VOFP 9.4E+03
HZTN  5 30 VOFN 9.4E+03
DOPM 19 22 MDTH 400E-12
DONM 21 19 MDTH 400E-12
HOPM 22 28 VOUT 2500
VIPM 28 4 150
HONM 21 27 VOUT 3750
VINM 5 27 150
EOUT 26 23 19 5 1
VOUT 23 5 0
ROUT 26 3 100
COUT 3 5 1.600000E-12
DOP 19 25 MDTH 400E-12
VOP 4 25 1.924208E+00
DON 24 19 MDTH 400E-12
VON 24 5 8.742083E-01
.ENDS 
** Macanal, Analog macromodels generator, v.1.0 
** J. REMY, SGS THOMSON, ANACA Grenoble, Aug. 1992. 
** Standard Linear Ics Macromodels, 1993.  
** CONNECTIONS : 
* 1 INVERTING INPUT 
* 2 NON-INVERTING INPUT 
* 3 OUTPUT 
* 4 POSITIVE POWER SUPPLY 
* 5 NEGATIVE POWER SUPPLY
.SUBCKT TS27M4_ST 1 3 2 4 5 
**********************************************************
.MODEL MDTH D IS=1E-8 KF=7.405288E-15 CJO=10F 
* INPUT STAGE
CIP 2 5 1.000000E-12
CIN 1 5 1.000000E-12
EIP 10 5 2 5 1
EIN 16 5 1 5 1
RIP 10 11 5.200000E+01
RIN 15 16 5.200000E+01
RIS 11 15 1.337376E+02
DIP 11 12 MDTH 400E-12
DIN 15 14 MDTH 400E-12
VOFP 12 13 DC 0.000000E+00
VOFN 13 14 DC 0
IPOL 13 5 5.000000E-06
CPS 11 15 7.175351E-10
DINN 17 13 MDTH 400E-12
VIN 17 5 -0.5000000e+00
DINR 15 18 MDTH 400E-12
VIP 4 18 1.600000E+00
FCP 4 5 VOFP 2.900000E+01
FCN 5 4 VOFN 2.900000E+01 
* AMPLIFYING STAGE
FIP 5 19 VOFP 8.400000E+02
FIN 5 19 VOFN 8.400000E+02
RG1 19 5 2.212321E+06
RG2 19 4 2.212321E+06
CC 19 29 7.000000E-09
HZTP 30 29 VOFP 9.4E+03
HZTN  5 30 VOFN 9.4E+03
DOPM 19 22 MDTH 400E-12
DONM 21 19 MDTH 400E-12
HOPM 22 28 VOUT 2500
VIPM 28 4 150
HONM 21 27 VOUT 3750
VINM 5 27 150
EOUT 26 23 19 5 1
VOUT 23 5 0
ROUT 26 3 100
COUT 3 5 1.600000E-12
DOP 19 25 MDTH 400E-12
VOP 4 25 1.924208E+00
DON 24 19 MDTH 400E-12
VON 24 5 8.742083E-01
.ENDS 
** Macanal, Analog macromodels generator, v.1.0 
** J. REMY, SGS THOMSON, ANACA Grenoble, Aug. 1992. 
** Standard Linear Ics Macromodels, 1993.  
** CONNECTIONS : 
* 1 INVERTING INPUT 
* 2 NON-INVERTING INPUT 
* 3 OUTPUT 
* 4 POSITIVE POWER SUPPLY 
* 5 NEGATIVE POWER SUPPLY
.SUBCKT TS339_ST 1 3 2 4 5 
********************************************************** 
********************** COMPARATOR ********************
.MODEL MDTH D IS=1E-11 KF=1.050321E-32 CJO=10F
.MODEL DIDEAL D N=0.1 IS=1E-08 
* INPUT STAGE
CIP 2 5 1.000000E-12
CIN 1 5 1.000000E-12
EIP 10 0 2 0 1
EIN 16 0 1 0 1
RIP 10 11 6.500000E+01
RIN 15 16 6.500000E+01
RIS 11 15 1.939046E+02
DIP 11 12 MDTH 400E-12
DIN 15 14 MDTH 400E-12
VOFP 12 13 DC 0.000000E+00
VOFN 13 14 DC 0
IPOL 13 0 100E-06
CPS 11 15 8.5E-09
DINN 17 13 MDTH 400E-12
VIN 17 5 0.000000e+00
DINR 15 18 MDTH 400E-12
VIP 4 18 1.200000E+00
FCP 4 5 VOFP 0.00
FCN 5 4 VOFN 0.00
FIBP 2 0 VOFN 2.000000E-08
FIBN 0 1 VOFP 2.000000E-08 
* AMPLIFYING STAGE
RG1 5 19 2.8E+05
RG2 4 19 2.8E+05
DOP 19 25 MDTH 400E-12
VOP 4 25 1.097
DON 24 19 MDTH 400E-12
VON 24 5 1.097
FIP 0 19 VOFP 104
FIN 0 19 VOFN 104
EOUT 26 23 19 5 1
VOUT 23 5 0V
RFUIT 126 5 2.5E+09
DOUT 126 26 DIDEAL 400E-12
ROUT 126 3 28.33
.ENDS 
** Macanal, Analog macromodels generator, v.1.0 
** J. REMY, SGS THOMSON, ANACA Grenoble, Aug. 1992. 
** Standard Linear Ics Macromodels, 1993.  
** CONNECTIONS : 
* 1 INVERTING INPUT 
* 2 NON-INVERTING INPUT 
* 3 OUTPUT 
* 4 POSITIVE POWER SUPPLY 
* 5 NEGATIVE POWER SUPPLY
.SUBCKT TS3702_ST 1 3 2 4 5 
**********************************************************
.MODEL MDTH D IS=1E-11 KF=1.050321E-32 CJO=10F 
* INPUT STAGE
CIP 2 5 1.000000E-12
CIN 1 5 1.000000E-12
EIP 10 0 2 0 1
EIN 16 0 1 0 1
RIP 10 11 6.500000E+01
RIN 15 16 6.500000E+01
RIS 11 15 1.939046E+02
DIP 11 12 MDTH 400E-12
DIN 15 14 MDTH 400E-12
VOFP 12 13 DC 0.000000E+00
VOFN 13 14 DC 0
IPOL 13 0 100E-06
CPS 11 15 8.16E-09
DINN 17 13 MDTH 400E-12
VIN 17 5 0.000000e+00
DINR 15 18 MDTH 400E-12
VIP 4 18 1.200000E+00
FCP 4 5 VOFP 0.00
FCN 5 4 VOFN 0.00
FIBP 2 0 VOFN 2.000000E-08
FIBN 0 1 VOFP 2.000000E-08 
* AMPLIFYING STAGE
RG1 5 19 2.8E+05
RG2 4 19 2.8E+05
DOPM 19 22 MDTH 400E-12
DONM 21 19 MDTH 400E-12
HOPM 22 28 VOUT 3500
VIPM 28 4 150
HONM 21 27 VOUT 3000
VINM 5 27 150
DOP 19 25 MDTH 400E-12
VOP 4 25 1.097
DON 24 19 MDTH 400E-12
VON 24 5 1.097
FIP 0 19 VOFP 104
FIN 0 19 VOFN 104
EOUT 26 23 19 5 1
VOUT 23 5 0V
ROUT 26 3 62.5
.ENDS 
** Macanal, Analog macromodels generator, v.1.0 
** J. REMY, SGS THOMSON, ANACA Grenoble, Aug. 1992. 
** Standard Linear Ics Macromodels, 1993.  
** CONNECTIONS : 
* 1 INVERTING INPUT 
* 2 NON-INVERTING INPUT 
* 3 OUTPUT 
* 4 POSITIVE POWER SUPPLY 
* 5 NEGATIVE POWER SUPPLY
.SUBCKT TS3704_ST 1 3 2 4 5 
**********************************************************
.MODEL MDTH D IS=1E-11 KF=1.050321E-32 CJO=10F 
* INPUT STAGE
CIP 2 5 1.000000E-12
CIN 1 5 1.000000E-12
EIP 10 0 2 0 1
EIN 16 0 1 0 1
RIP 10 11 6.500000E+01
RIN 15 16 6.500000E+01
RIS 11 15 1.939046E+02
DIP 11 12 MDTH 400E-12
DIN 15 14 MDTH 400E-12
VOFP 12 13 DC 0.000000E+00
VOFN 13 14 DC 0
IPOL 13 0 100E-06
CPS 11 15 8.16E-09
DINN 17 13 MDTH 400E-12
VIN 17 5 0.000000e+00
DINR 15 18 MDTH 400E-12
VIP 4 18 1.200000E+00
FCP 4 5 VOFP 0.00
FCN 5 4 VOFN 0.00
FIBP 2 0 VOFN 2.000000E-08
FIBN 0 1 VOFP 2.000000E-08 
* AMPLIFYING STAGE
RG1 5 19 2.8E+05
RG2 4 19 2.8E+05
DOPM 19 22 MDTH 400E-12
DONM 21 19 MDTH 400E-12
HOPM 22 28 VOUT 3500
VIPM 28 4 150
HONM 21 27 VOUT 3000
VINM 5 27 150
DOP 19 25 MDTH 400E-12
VOP 4 25 1.097
DON 24 19 MDTH 400E-12
VON 24 5 1.097