**********
* Copyright Intusoft 1988-1997
* All Rights Reserved
**********
*SRC=POSTHERM;POSTHERM;Generic Models;Thermistor;PTC
*SYM=THERMIST
.SUBCKT POSTHERM 1 2 3 {BETA=??? R25C=???}
*Connections     + - Tempin
*Parameters: Beta Thermistor Beta, R25C Resistance @ 25Degrees C in Ohms
B1 1 2 I=(V(1)-V(2))/({R25C}*EXP({BETA}*((1/298.15)-1/(V(3)+273.15))))
.ENDS
*GENERIC PTC 
**********
*SRC=NEGTHERM;NEGTHERM;Generic Models;Thermistor;NTC
*SYM=THERMIST
.SUBCKT NEGTHERM 1 2 3 {BETA=??? R25C=???}
*Connections     + - Tempin
*Parameters: Beta Thermistor Beta, R25C Resistance @ 25Degrees C in Ohms
B1 1 2 I=(V(1)-V(2))/({R25C}*EXP({BETA}*(1/(V(3)+273.15)-1/298.15)))
.ENDS
*GENERIC NTC 
**********
*SRC=D320A130M;D320A130;Sensors;Thermistor;Thermometrics NTC 20% 850MA
*SYM=THERM2
.SUBCKT D320A130 1 2 3
B1 1 2 I=(V(1)-V(2))/(13*EXP(3.1K*(1/(V(3)+273.15)-1/298.15)))
.ENDS
*THERMOMETRICS NTC 20% 850MA
**********
*SRC=D320A200M;D320A200;Sensors;Thermistor;Thermometrics NTC 20% 690MA
*SYM=THERM2
.SUBCKT D320A200 1 2 3
B1 1 2 I=(V(1)-V(2))/(20*EXP(3.1K*(1/(V(3)+273.15)-1/298.15)))
.ENDS
*THERMOMETRICS NTC 20% 690MA
**********
*SRC=D320A300M;D320A300;Sensors;Thermistor;Thermometrics NTC 20% 560MA
*SYM=THERM2
.SUBCKT D320A300 1 2 3
B1 1 2 I=(V(1)-V(2))/(30*EXP(3.1K*(1/(V(3)+273.15)-1/298.15)))
.ENDS
*THERMOMETRICS NTC 20% 560MA
**********
*SRC=D320A400L;D320A400;Sensors;Thermistor;Thermometrics NTC 15% 480MA
*SYM=THERM2
.SUBCKT D320A400 1 2 3
B1 1 2 I=(V(1)-V(2))/(40*EXP(3.1K*(1/(V(3)+273.15)-1/298.15)))
.ENDS
*THERMOMETRICS NTC 15% 480MA
**********
*SRC=D320A500L;D320A500;Sensors;Thermistor;Thermometrics NTC 15% 387MA
*SYM=THERM2
.SUBCKT D320A500 1 2 3
B1 1 2 I=(V(1)-V(2))/(50*EXP(3.1K*(1/(V(3)+273.15)-1/298.15)))
.ENDS
*THERMOMETRICS NTC 15% 387MA
**********
*SRC=D320A600L;D320A600;Sensors;Thermistor;Thermometrics NTC 15% 353MA
*SYM=THERM2
.SUBCKT D320A600 1 2 3
B1 1 2 I=(V(1)-V(2))/(60*EXP(3.1K*(1/(V(3)+273.15)-1/298.15)))
.ENDS
*THERMOMETRICS NTC 15% 353MA
**********
*SRC=D320A800L;D320A800;Sensors;Thermistor;Thermometrics NTC 15% 345MA
*SYM=THERM2
.SUBCKT D320A800 1 2 3
B1 1 2 I=(V(1)-V(2))/(80*EXP(3.1K*(1/(V(3)+273.15)-1/298.15)))
.ENDS
*THERMOMETRICS NTC 15% 345MA
**********
*SRC=D320A131K;D320A131;Sensors;Thermistor;Thermometrics NTC 15% 271MA
*SYM=THERM2
.SUBCKT D320A131 1 2 3
B1 1 2 I=(V(1)-V(2))/(130*EXP(3.1K*(1/(V(3)+273.15)-1/298.15)))
.ENDS
*THERMOMETRICS NTC 15% 271MA
**********
*SRC=D320A252L;D320A252;Sensors;Thermistor;Thermometrics NTC 15% 61MA
*SYM=THERM2
.SUBCKT D320A252 1 2 3
B1 1 2 I=(V(1)-V(2))/(2.5K*EXP(3.1K*(1/(V(3)+273.15)-1/298.15)))
.ENDS
*THERMOMETRICS NTC 15% 61MA
**********
*SRC=D200A700L;D200A700;Sensors;Thermistor;Thermometrics NTC 15% 290MA
*SYM=THERM2
.SUBCKT D200A700 1 2 3
B1 1 2 I=(V(1)-V(2))/(70*EXP(3.1K*(1/(V(3)+273.15)-1/298.15)))
.ENDS
*THERMOMETRICS NTC 15% 290MA
**********
*SRC=D200A900L;D200A900;Sensors;Thermistor;Thermometrics NTC 15% 261MA
*SYM=THERM2
.SUBCKT D200A900 1 2 3
B1 1 2 I=(V(1)-V(2))/(90*EXP(3.1K*(1/(V(3)+273.15)-1/298.15)))
.ENDS
*THERMOMETRICS NTC 15% 261MA
**********
*SRC=D200A101L;D200A101;Sensors;Thermistor;Thermometrics NTC 15% 248MA
*SYM=THERM2
.SUBCKT D200A101 1 2 3
B1 1 2 I=(V(1)-V(2))/(100*EXP(3.1K*(1/(V(3)+273.15)-1/298.15)))
.ENDS
*THERMOMETRICS NTC 15% 248MA
**********
*SRC=D200A121L;D200A121;Sensors;Thermistor;Thermometrics NTC 15% 226MA
*SYM=THERM2
.SUBCKT D200A121 1 2 3
B1 1 2 I=(V(1)-V(2))/(120*EXP(3.1K*(1/(V(3)+273.15)-1/298.15)))
.ENDS
*THERMOMETRICS NTC 15% 226MA
**********
*SRC=D200A151L;D200A151;Sensors;Thermistor;Thermometrics NTC 15% 202MA
*SYM=THERM2
.SUBCKT D200A151 1 2 3
B1 1 2 I=(V(1)-V(2))/(150*EXP(3.1K*(1/(V(3)+273.15)-1/298.15)))
.ENDS
*THERMOMETRICS NTC 15% 202MA
**********
*SRC=D200A201L;D200A201;Sensors;Thermistor;Thermometrics NTC 15% 176MA
*SYM=THERM2
.SUBCKT D200A201 1 2 3
B1 1 2 I=(V(1)-V(2))/(200*EXP(3.1K*(1/(V(3)+273.15)-1/298.15)))
.ENDS
*THERMOMETRICS NTC 15% 176MA
**********
*SRC=D200A221L;D200A221;Sensors;Thermistor;Thermometrics NTC 15% 168MA
*SYM=THERM2
.SUBCKT D200A221 1 2 3
B1 1 2 I=(V(1)-V(2))/(220*EXP(3.1K*(1/(V(3)+273.15)-1/298.15)))
.ENDS
*THERMOMETRICS NTC 15% 168MA
**********
*SRC=D200A251L;D200A251;Sensors;Thermistor;Thermometrics NTC 15% 157MA
*SYM=THERM2
.SUBCKT D200A251 1 2 3
B1 1 2 I=(V(1)-V(2))/(250*EXP(3.1K*(1/(V(3)+273.15)-1/298.15)))
.ENDS
*THERMOMETRICS NTC 15% 157MA
**********
*SRC=D200A271L;D200A271;Sensors;Thermistor;Thermometrics NTC 15% 152MA
*SYM=THERM2
.SUBCKT D200A271 1 2 3
B1 1 2 I=(V(1)-V(2))/(270*EXP(3.1K*(1/(V(3)+273.15)-1/298.15)))
.ENDS
*THERMOMETRICS NTC 15% 152MA
**********
*SRC=D200A301L;D200A301;Sensors;Thermistor;Thermometrics NTC 15% 146MA
*SYM=THERM2
.SUBCKT D200A301 1 2 3
B1 1 2 I=(V(1)-V(2))/(300*EXP(3.1K*(1/(V(3)+273.15)-1/298.15)))
.ENDS
*THERMOMETRICS NTC 15% 146MA
**********
*SRC=D200A401L;D200A401;Sensors;Thermistor;Thermometrics NTC 15% 120MA
*SYM=THERM2
.SUBCKT D200A401 1 2 3
B1 1 2 I=(V(1)-V(2))/(400*EXP(3.1K*(1/(V(3)+273.15)-1/298.15)))
.ENDS
*THERMOMETRICS NTC 15% 120MA
**********
*SRC=D200A501L;D200A501;Sensors;Thermistor;Thermometrics NTC 15% 111MA
*SYM=THERM2
.SUBCKT D200A501 1 2 3
B1 1 2 I=(V(1)-V(2))/(500*EXP(3.1K*(1/(V(3)+273.15)-1/298.15)))
.ENDS
*THERMOMETRICS NTC 15% 111MA
**********
*SRC=D200B651L;D200B651;Sensors;Thermistor;Thermometrics NTC 15% 130MA
*SYM=THERM2
.SUBCKT D200B651 1 2 3
B1 1 2 I=(V(1)-V(2))/(650*EXP(3.8K*(1/(V(3)+273.15)-1/298.15)))
.ENDS
*THERMOMETRICS NTC 15% 130MA
**********
*SRC=D200B102L;D200B102;Sensors;Thermistor;Thermometrics NTC 15% 105MA
*SYM=THERM2
.SUBCKT D200B102 1 2 3
B1 1 2 I=(V(1)-V(2))/(1K*EXP(3.8K*(1/(V(3)+273.15)-1/298.15)))
.ENDS
*THERMOMETRICS NTC 15% 105MA
**********
*SRC=D200B152L;D200B152;Sensors;Thermistor;Thermometrics NTC 15% 85MA
*SYM=THERM2
.SUBCKT D200B152 1 2 3
B1 1 2 I=(V(1)-V(2))/(1.5K*EXP(3.8K*(1/(V(3)+273.15)-1/298.15)))
.ENDS
*THERMOMETRICS NTC 15% 85MA
**********
*SRC=D200B202L;D200B202;Sensors;Thermistor;Thermometrics NTC 15% 74MA
*SYM=THERM2
.SUBCKT D200B202 1 2 3
B1 1 2 I=(V(1)-V(2))/(2K*EXP(3.8K*(1/(V(3)+273.15)-1/298.15)))
.ENDS
*THERMOMETRICS NTC 15% 74MA
**********
*SRC=D200B252L;D200B252;Sensors;Thermistor;Thermometrics NTC 15% 69MA
*SYM=THERM2
.SUBCKT D200B252 1 2 3
B1 1 2 I=(V(1)-V(2))/(2.5K*EXP(3.9K*(1/(V(3)+273.15)-1/298.15)))
.ENDS
*THERMOMETRICS NTC 15% 69MA
**********
*SRC=D200B302L;D200B302;Sensors;Thermistor;Thermometrics NTC 15% 63MA
*SYM=THERM2
.SUBCKT D200B302 1 2 3
B1 1 2 I=(V(1)-V(2))/(3K*EXP(3.9K*(1/(V(3)+273.15)-1/298.15)))
.ENDS
*THERMOMETRICS NTC 15% 63MA
**********
*SRC=D200B402L;D200B402;Sensors;Thermistor;Thermometrics NTC 15% 54MA
*SYM=THERM2
.SUBCKT D200B402 1 2 3
B1 1 2 I=(V(1)-V(2))/(4K*EXP(3.9K*(1/(V(3)+273.15)-1/298.15)))
.ENDS
*THERMOMETRICS NTC 15% 54MA
**********
*SRC=D200B502L;D200B502;Sensors;Thermistor;Thermometrics NTC 15% 49MA
*SYM=THERM2
.SUBCKT D200B502 1 2 3
B1 1 2 I=(V(1)-V(2))/(5K*EXP(3.9K*(1/(V(3)+273.15)-1/298.15)))
.ENDS
*THERMOMETRICS NTC 15% 49MA
**********
*SRC=D200B682L;D200B682;Sensors;Thermistor;Thermometrics NTC 15% 42MA
*SYM=THERM2
.SUBCKT D200B682 1 2 3
B1 1 2 I=(V(1)-V(2))/(6.8K*EXP(3.9K*(1/(V(3)+273.15)-1/298.15)))
.ENDS
*THERMOMETRICS NTC 15% 42MA
**********
*SRC=D200B103L;D200B103;Sensors;Thermistor;Thermometrics NTC 15% 39MA
*SYM=THERM2
.SUBCKT D200B103 1 2 3
B1 1 2 I=(V(1)-V(2))/(10K*EXP(4.2K*(1/(V(3)+273.15)-1/298.15)))
.ENDS
*THERMOMETRICS NTC 15% 39MA
**********
*SRC=D200B203L;D200B203;Sensors;Thermistor;Thermometrics NTC 15% 27MA
*SYM=THERM2
.SUBCKT D200B203 1 2 3
B1 1 2 I=(V(1)-V(2))/(20K*EXP(4.2K*(1/(V(3)+273.15)-1/298.15)))
.ENDS
*THERMOMETRICS NTC 15% 27MA
**********
*SRC=D200B303L;D200B303;Sensors;Thermistor;Thermometrics NTC 15% 17MA
*SYM=THERM2
.SUBCKT D200B303 1 2 3
B1 1 2 I=(V(1)-V(2))/(30K*EXP(4.2K*(1/(V(3)+273.15)-1/298.15)))
.ENDS
*THERMOMETRICS NTC 15% 17MA
**********
*SRC=D200B104L;D200B104;Sensors;Thermistor;Thermometrics NTC 15% 15MA
*SYM=THERM2
.SUBCKT D200B104 1 2 3
B1 1 2 I=(V(1)-V(2))/(100K*EXP(4.5K*(1/(V(3)+273.15)-1/298.15)))
.ENDS
*THERMOMETRICS NTC 15% 15MA
**********
*SRC=NT7332K102;332K102;Sensors;Thermistor;KOA NTC 10% 
*SYM=THERM2
.SUBCKT 332K102 1 2 3
B1 1 2 I=(V(1)-V(2))/(1K*EXP(3.2K*(1/(V(3)+273.15)-1/298.15)))
.ENDS
*KOA NTC 10% 
**********
*SRC=NT7332L102;332L102;Sensors;Thermistor;KOA NTC 15% 
*SYM=THERM2
.SUBCKT 332L102 1 2 3
B1 1 2 I=(V(1)-V(2))/(1K*EXP(3.2K*(1/(V(3)+273.15)-1/298.15)))
.ENDS
*KOA NTC 15% 
**********
*SRC=NT7332M102;332M102;Sensors;Thermistor;KOA NTC 20% 
*SYM=THERM2
.SUBCKT 332M102 1 2 3
B1 1 2 I=(V(1)-V(2))/(1K*EXP(3.2K*(1/(V(3)+273.15)-1/298.15)))
.ENDS
*KOA NTC 20% 
**********
*SRC=NT7333K471;333K471;Sensors;Thermistor;KOA NTC 10% 
*SYM=THERM2
.SUBCKT 333K471 1 2 3
B1 1 2 I=(V(1)-V(2))/(470*EXP(3.3K*(1/(V(3)+273.15)-1/298.15)))
.ENDS
*KOA NTC 10% 
**********
*SRC=NT7333L471;333L471;Sensors;Thermistor;KOA NTC 15% 
*SYM=THERM2
.SUBCKT 333L471 1 2 3
B1 1 2 I=(V(1)-V(2))/(470*EXP(3.3K*(1/(V(3)+273.15)-1/298.15)))
.ENDS
*KOA NTC 15% 
**********
*SRC=NT7333M471;333M471;Sensors;Thermistor;KOA NTC 20% 
*SYM=THERM2
.SUBCKT 333M471 1 2 3
B1 1 2 I=(V(1)-V(2))/(470*EXP(3.3K*(1/(V(3)+273.15)-1/298.15)))
.ENDS
*KOA NTC 20% 
**********
*SRC=NT7335K222;335K222;Sensors;Thermistor;KOA NTC 10% 
*SYM=THERM2
.SUBCKT 335K222 1 2 3
B1 1 2 I=(V(1)-V(2))/(2.2K*EXP(3.5K*(1/(V(3)+273.15)-1/298.15)))
.ENDS
*KOA NTC 10% 
**********
*SRC=NT7335L222;335L222;Sensors;Thermistor;KOA NTC 15% 
*SYM=THERM2
.SUBCKT 335L222 1 2 3
B1 1 2 I=(V(1)-V(2))/(2.2K*EXP(3.5K*(1/(V(3)+273.15)-1/298.15)))
.ENDS
*KOA NTC 15% 
**********
*SRC=NT7335M222;335M222;Sensors;Thermistor;KOA NTC 20% 
*SYM=THERM2
.SUBCKT 335M222 1 2 3
B1 1 2 I=(V(1)-V(2))/(2.2K*EXP(3.5K*(1/(V(3)+273.15)-1/298.15)))
.ENDS
*KOA NTC 20% 
**********
*SRC=NT7335K332;335K332;Sensors;Thermistor;KOA NTC 10% 
*SYM=THERM2
.SUBCKT 335K332 1 2 3
B1 1 2 I=(V(1)-V(2))/(3.3K*EXP(3.5K*(1/(V(3)+273.15)-1/298.15)))
.ENDS
*KOA NTC 10% 
**********
*SRC=NT7335L332;335L332;Sensors;Thermistor;KOA NTC 15% 
*SYM=THERM2
.SUBCKT 335L332 1 2 3
B1 1 2 I=(V(1)-V(2))/(3.3K*EXP(3.5K*(1/(V(3)+273.15)-1/298.15)))
.ENDS
*KOA NTC 15% 
**********
*SRC=NT7335M332;335M332;Sensors;Thermistor;KOA NTC 20% 
*SYM=THERM2
.SUBCKT 335M332 1 2 3
B1 1 2 I=(V(1)-V(2))/(3.3K*EXP(3.5K*(1/(V(3)+273.15)-1/298.15)))
.ENDS
*KOA NTC 20% 
**********
*SRC=NT7335K472;335K472;Sensors;Thermistor;KOA NTC 10% 
*SYM=THERM2
.SUBCKT 335K472 1 2 3
B1 1 2 I=(V(1)-V(2))/(4.7K*EXP(3.5K*(1/(V(3)+273.15)-1/298.15)))
.ENDS
*KOA NTC 10% 
**********
*SRC=NT7335L472;335L472;Sensors;Thermistor;KOA NTC 15% 
*SYM=THERM2
.SUBCKT 335L472 1 2 3
B1 1 2 I=(V(1)-V(2))/(4.7K*EXP(3.5K*(1/(V(3)+273.15)-1/298.15)))
.ENDS
*KOA NTC 15% 
**********
*SRC=NT7335M472;335M472;Sensors;Thermistor;KOA NTC 20% 
*SYM=THERM2
.SUBCKT 335M472 1 2 3
B1 1 2 I=(V(1)-V(2))/(4.7K*EXP(3.5K*(1/(V(3)+273.15)-1/298.15)))
.ENDS
*KOA NTC 20% 
**********
*SRC=NT7338K682;338K682;Sensors;Thermistor;KOA NTC 10% 
*SYM=THERM2
.SUBCKT 338K682 1 2 3
B1 1 2 I=(V(1)-V(2))/(6.8K*EXP(3.8K*(1/(V(3)+273.15)-1/298.15)))
.ENDS
*KOA NTC 10% 
**********
*SRC=NT7338L682;338L682;Sensors;Thermistor;KOA NTC 15% 
*SYM=THERM2
.SUBCKT 338L682 1 2 3
B1 1 2 I=(V(1)-V(2))/(6.8K*EXP(3.8K*(1/(V(3)+273.15)-1/298.15)))
.ENDS
*KOA NTC 15% 
**********
*SRC=NT7338M682;338M682;Sensors;Thermistor;KOA NTC 20% 
*SYM=THERM2
.SUBCKT 338M682 1 2 3
B1 1 2 I=(V(1)-V(2))/(6.8K*EXP(3.8K*(1/(V(3)+273.15)-1/298.15)))
.ENDS
*KOA NTC 20% 
**********
*SRC=NT7338K103;338K103;Sensors;Thermistor;KOA NTC 10% 
*SYM=THERM2
.SUBCKT 338K103 1 2 3
B1 1 2 I=(V(1)-V(2))/(10K*EXP(3.8K*(1/(V(3)+273.15)-1/298.15)))
.ENDS
*KOA NTC 10% 
**********
*SRC=NT7338L103;338L103;Sensors;Thermistor;KOA NTC 15% 
*SYM=THERM2
.SUBCKT 338L103 1 2 3
B1 1 2 I=(V(1)-V(2))/(10K*EXP(3.8K*(1/(V(3)+273.15)-1/298.15)))
.ENDS
*KOA NTC 15% 
**********
*SRC=NT7338M103;338M103;Sensors;Thermistor;KOA NTC 20% 
*SYM=THERM2
.SUBCKT 338M103 1 2 3
B1 1 2 I=(V(1)-V(2))/(10K*EXP(3.8K*(1/(V(3)+273.15)-1/298.15)))
.ENDS
*KOA NTC 20% 
**********
*SRC=NT7338K223;338K223;Sensors;Thermistor;KOA NTC 10% 
*SYM=THERM2
.SUBCKT 338K223 1 2 3
B1 1 2 I=(V(1)-V(2))/(22K*EXP(3.8K*(1/(V(3)+273.15)-1/298.15)))
.ENDS
*KOA NTC 10% 
**********
*SRC=NT7338L223;338L223;Sensors;Thermistor;KOA NTC 15% 
*SYM=THERM2
.SUBCKT 338L223 1 2 3
B1 1 2 I=(V(1)-V(2))/(22K*EXP(3.8K*(1/(V(3)+273.15)-1/298.15)))
.ENDS
*KOA NTC 15% 
**********
*SRC=NT7338M223;338M223;Sensors;Thermistor;KOA NTC 20% 
*SYM=THERM2
.SUBCKT 338M223 1 2 3
B1 1 2 I=(V(1)-V(2))/(22K*EXP(3.8K*(1/(V(3)+273.15)-1/298.15)))
.ENDS
*KOA NTC 20% 
**********
*SRC=NT7338K333;338K333;Sensors;Thermistor;KOA NTC 10% 
*SYM=THERM2
.SUBCKT 338K333 1 2 3
B1 1 2 I=(V(1)-V(2))/(33K*EXP(3.8K*(1/(V(3)+273.15)-1/298.15)))
.ENDS
*KOA NTC 10% 
**********
*SRC=NT7338L333;338L333;Sensors;Thermistor;KOA NTC 15% 
*SYM=THERM2
.SUBCKT 338L333 1 2 3
B1 1 2 I=(V(1)-V(2))/(33K*EXP(3.8K*(1/(V(3)+273.15)-1/298.15)))
.ENDS
*KOA NTC 15% 
**********
*SRC=NT7338M333;338M333;Sensors;Thermistor;KOA NTC 20% 
*SYM=THERM2
.SUBCKT 338M333 1 2 3
B1 1 2 I=(V(1)-V(2))/(33K*EXP(3.8K*(1/(V(3)+273.15)-1/298.15)))
.ENDS
*KOA NTC 20% 
**********
*SRC=NT7338K473;338K473;Sensors;Thermistor;KOA NTC 10% 
*SYM=THERM2
.SUBCKT 338K473 1 2 3
B1 1 2 I=(V(1)-V(2))/(47K*EXP(3.8K*(1/(V(3)+273.15)-1/298.15)))
.ENDS
*KOA NTC 10% 
**********
*SRC=NT7338L473;338L473;Sensors;Thermistor;KOA NTC 15% 
*SYM=THERM2
.SUBCKT 338L473 1 2 3
B1 1 2 I=(V(1)-V(2))/(47K*EXP(3.8K*(1/(V(3)+273.15)-1/298.15)))
.ENDS
*KOA NTC 15% 
**********
*SRC=NT7338M473;338M473;Sensors;Thermistor;KOA NTC 20% 
*SYM=THERM2
.SUBCKT 338M473 1 2 3
B1 1 2 I=(V(1)-V(2))/(47K*EXP(3.8K*(1/(V(3)+273.15)-1/298.15)))
.ENDS
*KOA NTC 20% 
**********
*SRC=NT7338K683;338K683;Sensors;Thermistor;KOA NTC 10% 
*SYM=THERM2
.SUBCKT 338K683 1 2 3
B1 1 2 I=(V(1)-V(2))/(68K*EXP(3.8K*(1/(V(3)+273.15)-1/298.15)))
.ENDS
*KOA NTC 10% 
**********
*SRC=NT7338L683;338L683;Sensors;Thermistor;KOA NTC 15% 
*SYM=THERM2
.SUBCKT 338L683 1 2 3
B1 1 2 I=(V(1)-V(2))/(68K*EXP(3.8K*(1/(V(3)+273.15)-1/298.15)))
.ENDS
*KOA NTC 15% 
**********
*SRC=NT7338M683;338M683;Sensors;Thermistor;KOA NTC 20% 
*SYM=THERM2
.SUBCKT 338M683 1 2 3
B1 1 2 I=(V(1)-V(2))/(68K*EXP(3.8K*(1/(V(3)+273.15)-1/298.15)))
.ENDS
*KOA NTC 20% 
**********
*SRC=NT7338K104;338K104;Sensors;Thermistor;KOA NTC 10% 
*SYM=THERM2
.SUBCKT 338K104 1 2 3
B1 1 2 I=(V(1)-V(2))/(100K*EXP(3.8K*(1/(V(3)+273.15)-1/298.15)))
.ENDS
*KOA NTC 10% 
**********
*SRC=NT7338L104;338L104;Sensors;Thermistor;KOA NTC 15% 
*SYM=THERM2
.SUBCKT 338L104 1 2 3
B1 1 2 I=(V(1)-V(2))/(100K*EXP(3.8K*(1/(V(3)+273.15)-1/298.15)))
.ENDS
*KOA NTC 15% 
**********
*SRC=NT7338M104;338M104;Sensors;Thermistor;KOA NTC 20% 
*SYM=THERM2
.SUBCKT 338M104 1 2 3
B1 1 2 I=(V(1)-V(2))/(100K*EXP(3.8K*(1/(V(3)+273.15)-1/298.15)))
.ENDS
*KOA NTC 20% 
**********
*SRC=TG1/8821J;TG18821J;Sensors;Thermistor;Unitrode PTC 5% 1/8W
*SYM=THERM2
.SUBCKT TG18821J 1 2 3
B1 1 2 I=(V(1)-V(2))/(820*EXP(470*((1/298.15)-1/(V(3)+273.15))))
.ENDS
*UNITRODE PTC 5% 1/8W
**********
*SRC=TM1/8821J;TM18821J;Sensors;Thermistor;Unitrode PTC 5% 1/8W
*SYM=THERM2
.SUBCKT TM18821J 1 2 3
B1 1 2 I=(V(1)-V(2))/(820*EXP(470*((1/298.15)-1/(V(3)+273.15))))
.ENDS
*UNITRODE PTC 5% 1/8W
**********
*SRC=RTH42/8821J;R428821J;Sensors;Thermistor;Unitrode PTC 5% 1/8W
*SYM=THERM2
.SUBCKT R428821J 1 2 3
B1 1 2 I=(V(1)-V(2))/(820*EXP(470*((1/298.15)-1/(V(3)+273.15))))
.ENDS
*UNITRODE PTC 5% 1/8W
**********
*SRC=RTH22/8821J;R228821J;Sensors;Thermistor;Unitrode PTC 5% 1/8W
*SYM=THERM2
.SUBCKT R228821J 1 2 3
B1 1 2 I=(V(1)-V(2))/(820*EXP(470*((1/298.15)-1/(V(3)+273.15))))
.ENDS
*UNITRODE PTC 5% 1/8W
**********
*SRC=TM1/4821J;TM14821J;Sensors;Thermistor;Unitrode PTC 5% 1/4W
*SYM=THERM2
.SUBCKT TM14821J 1 2 3
B1 1 2 I=(V(1)-V(2))/(820*EXP(470*((1/298.15)-1/(V(3)+273.15))))
.ENDS
*UNITRODE PTC 5% 1/4W
**********
*SRC=TG1/8821K;TG18821K;Sensors;Thermistor;Unitrode PTC 10% 1/8W
*SYM=THERM2
.SUBCKT TG18821K 1 2 3
B1 1 2 I=(V(1)-V(2))/(820*EXP(470*((1/298.15)-1/(V(3)+273.15))))
.ENDS
*UNITRODE PTC 10% 1/8W
**********
*SRC=TM1/8821K;TM18821K;Sensors;Thermistor;Unitrode PTC 10% 1/8W
*SYM=THERM2
.SUBCKT TM18821K 1 2 3
B1 1 2 I=(V(1)-V(2))/(820*EXP(470*((1/298.15)-1/(V(3)+273.15))))
.ENDS
*UNITRODE PTC 10% 1/8W
**********
*SRC=RTH42/8821K;R428821K;Sensors;Thermistor;Unitrode PTC 10% 1/8W
*SYM=THERM2
.SUBCKT R428821K 1 2 3
B1 1 2 I=(V(1)-V(2))/(820*EXP(470*((1/298.15)-1/(V(3)+273.15))))
.ENDS
*UNITRODE PTC 10% 1/8W
**********
*SRC=RTH22/8821K;R228821K;Sensors;Thermistor;Unitrode PTC 10% 1/8W
*SYM=THERM2
.SUBCKT R228821K 1 2 3
B1 1 2 I=(V(1)-V(2))/(820*EXP(470*((1/298.15)-1/(V(3)+273.15))))
.ENDS
*UNITRODE PTC 10% 1/8W
**********
*SRC=TM1/4821K;TM14821K;Sensors;Thermistor;Unitrode PTC 10% 1/4W
*SYM=THERM2
.SUBCKT TM14821K 1 2 3
B1 1 2 I=(V(1)-V(2))/(820*EXP(470*((1/298.15)-1/(V(3)+273.15))))
.ENDS
*UNITRODE PTC 10% 1/4W
**********
*SRC=TG1/8102J;TG18102J;Sensors;Thermistor;Unitrode PTC 5% 1/8W
*SYM=THERM2
.SUBCKT TG18102J 1 2 3
B1 1 2 I=(V(1)-V(2))/(1K*EXP(470*((1/298.15)-1/(V(3)+273.15))))
.ENDS
*UNITRODE PTC 5% 1/8W
**********
*SRC=TM1/8102J;TM18102J;Sensors;Thermistor;Unitrode PTC 5% 1/8W
*SYM=THERM2
.SUBCKT TM18102J 1 2 3
B1 1 2 I=(V(1)-V(2))/(1K*EXP(470*((1/298.15)-1/(V(3)+273.15))))
.ENDS
*UNITRODE PTC 5% 1/8W
**********
*SRC=RTH42/8102J;R428102J;Sensors;Thermistor;Unitrode PTC 5% 1/8W
*SYM=THERM2
.SUBCKT R428102J 1 2 3
B1 1 2 I=(V(1)-V(2))/(1K*EXP(470*((1/298.15)-1/(V(3)+273.15))))
.ENDS
*UNITRODE PTC 5% 1/8W
**********
*SRC=RTH22/8102J;R228102J;Sensors;Thermistor;Unitrode PTC 5% 1/8W
*SYM=THERM2
.SUBCKT R228102J 1 2 3
B1 1 2 I=(V(1)-V(2))/(1K*EXP(470*((1/298.15)-1/(V(3)+273.15))))
.ENDS
*UNITRODE PTC 5% 1/8W
**********
*SRC=TM1/4102J;TM14102J;Sensors;Thermistor;Unitrode PTC 5% 1/4W
*SYM=THERM2
.SUBCKT TM14102J 1 2 3
B1 1 2 I=(V(1)-V(2))/(1K*EXP(470*((1/298.15)-1/(V(3)+273.15))))
.ENDS
*UNITRODE PTC 5% 1/4W
**********
*SRC=TG1/8102K;TG18102K;Sensors;Thermistor;Unitrode PTC 10% 1/8W
*SYM=THERM2
.SUBCKT TG18102K 1 2 3
B1 1 2 I=(V(1)-V(2))/(1K*EXP(470*((1/298.15)-1/(V(3)+273.15))))
.ENDS
*UNITRODE PTC 10% 1/8W
**********
*SRC=TM1/8102K;TM18102K;Sensors;Thermistor;Unitrode PTC 10% 1/8W
*SYM=THERM2
.SUBCKT TM18102K 1 2 3
B1 1 2 I=(V(1)-V(2))/(1K*EXP(470*((1/298.15)-1/(V(3)+273.15))))
.ENDS
*UNITRODE PTC 10% 1/8W
**********
*SRC=RTH42/8102K;R428102K;Sensors;Thermistor;Unitrode PTC 10% 1/8W
*SYM=THERM2
.SUBCKT R428102K 1 2 3
B1 1 2 I=(V(1)-V(2))/(1K*EXP(470*((1/298.15)-1/(V(3)+273.15))))
.ENDS
*UNITRODE PTC 10% 1/8W
**********
*SRC=RTH22/8102K;R228102K;Sensors;Thermistor;Unitrode PTC 10% 1/8W
*SYM=THERM2
.SUBCKT R228102K 1 2 3
B1 1 2 I=(V(1)-V(2))/(1K*EXP(470*((1/298.15)-1/(V(3)+273.15))))
.ENDS
*UNITRODE PTC 10% 1/8W
**********
*SRC=TM1/4102K;TM14102K;Sensors;Thermistor;Unitrode PTC 10% 1/4W
*SYM=THERM2
.SUBCKT TM14102K 1 2 3
B1 1 2 I=(V(1)-V(2))/(1K*EXP(470*((1/298.15)-1/(V(3)+273.15))))
.ENDS
*UNITRODE PTC 10% 1/4W
**********
*SRC=TG1/8122J;TG18122J;Sensors;Thermistor;Unitrode PTC 5% 1/8W
*SYM=THERM2
.SUBCKT TG18122J 1 2 3
B1 1 2 I=(V(1)-V(2))/(1.2K*EXP(470*((1/298.15)-1/(V(3)+273.15))))
.ENDS
*UNITRODE PTC 5% 1/8W
**********
*SRC=TM1/8122J;TM18122J;Sensors;Thermistor;Unitrode PTC 5% 1/8W
*SYM=THERM2
.SUBCKT TM18122J 1 2 3
B1 1 2 I=(V(1)-V(2))/(1.2K*EXP(470*((1/298.15)-1/(V(3)+273.15))))
.ENDS
*UNITRODE PTC 5% 1/8W
**********
*SRC=RTH42/8122J;R428122J;Sensors;Thermistor;Unitrode PTC 5% 1/8W
*SYM=THERM2
.SUBCKT R428122J 1 2 3
B1 1 2 I=(V(1)-V(2))/(1.2K*EXP(470*((1/298.15)-1/(V(3)+273.15))))
.ENDS
*UNITRODE PTC 5% 1/8W
**********
*SRC=RTH22/8122J;R228122J;Sensors;Thermistor;Unitrode PTC 5% 1/8W
*SYM=THERM2
.SUBCKT R228122J 1 2 3
B1 1 2 I=(V(1)-V(2))/(1.2K*EXP(470*((1/298.15)-1/(V(3)+273.15))))
.ENDS
*UNITRODE PTC 5% 1/8W
**********
*SRC=TM1/4122J;TM14122J;Sensors;Thermistor;Unitrode PTC 5% 1/4W
*SYM=THERM2
.SUBCKT TM14122J 1 2 3
B1 1 2 I=(V(1)-V(2))/(1.2K*EXP(470*((1/298.15)-1/(V(3)+273.15))))
.ENDS
*UNITRODE PTC 5% 1/4W
**********
*SRC=TG1/8122K;TG18122K;Sensors;Thermistor;Unitrode PTC 10% 1/8W
*SYM=THERM2
.SUBCKT TG18122K 1 2 3
B1 1 2 I=(V(1)-V(2))/(1.2K*EXP(470*((1/298.15)-1/(V(3)+273.15))))
.ENDS
*UNITRODE PTC 10% 1/8W
**********
*SRC=TM1/8122K;TM18122K;Sensors;Thermistor;Unitrode PTC 10% 1/8W
*SYM=THERM2
.SUBCKT TM18122K 1 2 3
B1 1 2 I=(V(1)-V(2))/(1.2K*EXP(470*((1/298.15)-1/(V(3)+273.15))))
.ENDS
*UNITRODE PTC 10% 1/8W
**********
*SRC=RTH42/8122K;R428122K;Sensors;Thermistor;Unitrode PTC 10% 1/8W
*SYM=THERM2
.SUBCKT R428122K 1 2 3
B1 1 2 I=(V(1)-V(2))/(1.2K*EXP(470*((1/298.15)-1/(V(3)+273.15))))
.ENDS
*UNITRODE PTC 10% 1/8W
**********
*SRC=RTH22/8122K;R228122K;Sensors;Thermistor;Unitrode PTC 10% 1/8W
*SYM=THERM2
.SUBCKT R228122K 1 2 3
B1 1 2 I=(V(1)-V(2))/(1.2K*EXP(470*((1/298.15)-1/(V(3)+273.15))))
.ENDS
*UNITRODE PTC 10% 1/8W
**********
*SRC=TM1/4122K;TM14122K;Sensors;Thermistor;Unitrode PTC 10% 1/4W
*SYM=THERM2
.SUBCKT TM14122K 1 2 3
B1 1 2 I=(V(1)-V(2))/(1.2K*EXP(470*((1/298.15)-1/(V(3)+273.15))))
.ENDS
*UNITRODE PTC 10% 1/4W
**********
*SRC=TG1/8152J;TG18152J;Sensors;Thermistor;Unitrode PTC 5% 1/8W
*SYM=THERM2
.SUBCKT TG18152J 1 2 3
B1 1 2 I=(V(1)-V(2))/(1.5K*EXP(513*((1/298.15)-1/(V(3)+273.15))))
.ENDS
*UNITRODE PTC 5% 1/8W
**********
*SRC=TM1/8152J;TM18152J;Sensors;Thermistor;Unitrode PTC 5% 1/8W
*SYM=THERM2
.SUBCKT TM18152J 1 2 3
B1 1 2 I=(V(1)-V(2))/(1.5K*EXP(470*((1/298.15)-1/(V(3)+273.15))))
.ENDS
*UNITRODE PTC 5% 1/8W
**********
*SRC=RTH42/8152J;R428152J;Sensors;Thermistor;Unitrode PTC 5% 1/8W
*SYM=THERM2
.SUBCKT R428152J 1 2 3
B1 1 2 I=(V(1)-V(2))/(1.5K*EXP(513*((1/298.15)-1/(V(3)+273.15))))
.ENDS
*UNITRODE PTC 5% 1/8W
**********
*SRC=RTH22/8152J;R228152J;Sensors;Thermistor;Unitrode PTC 5% 1/8W
*SYM=THERM2
.SUBCKT R228152J 1 2 3
B1 1 2 I=(V(1)-V(2))/(1.5K*EXP(470*((1/298.15)-1/(V(3)+273.15))))
.ENDS
*UNITRODE PTC 5% 1/8W
**********
*SRC=TM1/4152J;TM14152J;Sensors;Thermistor;Unitrode PTC 5% 1/4W
*SYM=THERM2
.SUBCKT TM14152J 1 2 3
B1 1 2 I=(V(1)-V(2))/(1.5K*EXP(470*((1/298.15)-1/(V(3)+273.15))))
.ENDS
*UNITRODE PTC 5% 1/4W
**********
*SRC=TG1/8152K;TG18152K;Sensors;Thermistor;Unitrode PTC 10% 1/8W
*SYM=THERM2
.SUBCKT TG18152K 1 2 3
B1 1 2 I=(V(1)-V(2))/(1.5K*EXP(513*((1/298.15)-1/(V(3)+273.15))))
.ENDS
*UNITRODE PTC 10% 1/8W
**********
*SRC=TM1/8152K;TM18152K;Sensors;Thermistor;Unitrode PTC 10% 1/8W
*SYM=THERM2
.SUBCKT TM18152K 1 2 3
B1 1 2 I=(V(1)-V(2))/(1.5K*EXP(470*((1/298.15)-1/(V(3)+273.15))))
.ENDS
*UNITRODE PTC 10% 1/8W
**********
*SRC=RTH42/8152K;R428152K;Sensors;Thermistor;Unitrode PTC 10% 1/8W
*SYM=THERM2
.SUBCKT R428152K 1 2 3
B1 1 2 I=(V(1)-V(2))/(1.5K*EXP(513*((1/298.15)-1/(V(3)+273.15))))
.ENDS
*UNITRODE PTC 10% 1/8W
**********
*SRC=RTH22/8152K;R228152K;Sensors;Thermistor;Unitrode PTC 10% 1/8W
*SYM=THERM2
.SUBCKT R228152K 1 2 3
B1 1 2 I=(V(1)-V(2))/(1.5K*EXP(470*((1/298.15)-1/(V(3)+273.15))))
.ENDS
*UNITRODE PTC 10% 1/8W
**********
*SRC=TM1/4152K;TM14152K;Sensors;Thermistor;Unitrode PTC 10% 1/4W
*SYM=THERM2
.SUBCKT TM14152K 1 2 3
B1 1 2 I=(V(1)-V(2))/(1.5K*EXP(470*((1/298.15)-1/(V(3)+273.15))))
.ENDS
*UNITRODE PTC 10% 1/4W
**********
*SRC=TG1/8182J;TG18182J;Sensors;Thermistor;Unitrode PTC 5% 1/8W
*SYM=THERM2
.SUBCKT TG18182J 1 2 3
B1 1 2 I=(V(1)-V(2))/(1.8K*EXP(513*((1/298.15)-1/(V(3)+273.15))))
.ENDS
*UNITRODE PTC 5% 1/8W
**********
*SRC=TM1/8182J;TM18182J;Sensors;Thermistor;Unitrode PTC 5% 1/8W
*SYM=THERM2
.SUBCKT TM18182J 1 2 3
B1 1 2 I=(V(1)-V(2))/(1.8K*EXP(513*((1/298.15)-1/(V(3)+273.15))))
.ENDS
*UNITRODE PTC 5% 1/8W
**********
*SRC=RTH42/8182J;R428182J;Sensors;Thermistor;Unitrode PTC 5% 1/8W
*SYM=THERM2
.SUBCKT R428182J 1 2 3
B1 1 2 I=(V(1)-V(2))/(1.8K*EXP(513*((1/298.15)-1/(V(3)+273.15))))
.ENDS
*UNITRODE PTC 5% 1/8W
**********
*SRC=RTH22/8182J;R228182J;Sensors;Thermistor;Unitrode PTC 5% 1/8W
*SYM=THERM2
.SUBCKT R228182J 1 2 3
B1 1 2 I=(V(1)-V(2))/(1.8K*EXP(513*((1/298.15)-1/(V(3)+273.15))))
.ENDS
*UNITRODE PTC 5% 1/8W
**********
*SRC=TM1/4182J;TM14182J;Sensors;Thermistor;Unitrode PTC 5% 1/4W
*SYM=THERM2
.SUBCKT TM14182J 1 2 3
B1 1 2 I=(V(1)-V(2))/(1.8K*EXP(513*((1/298.15)-1/(V(3)+273.15))))
.ENDS
*UNITRODE PTC 5% 1/4W
**********
*SRC=TG1/8182K;TG18182K;Sensors;Thermistor;Unitrode PTC 10% 1/8W
*SYM=THERM2
.SUBCKT TG18182K 1 2 3
B1 1 2 I=(V(1)-V(2))/(1.8K*EXP(513*((1/298.15)-1/(V(3)+273.15))))
.ENDS
*UNITRODE PTC 10% 1/8W
**********
*SRC=TM1/8182K;TM18182K;Sensors;Thermistor;Unitrode PTC 10% 1/8W
*SYM=THERM2
.SUBCKT TM18182K 1 2 3
B1 1 2 I=(V(1)-V(2))/(1.8K*EXP(513*((1/298.15)-1/(V(3)+273.15))))
.ENDS
*UNITRODE PTC 10% 1/8W
**********
*SRC=RTH42/8182K;R428182K;Sensors;Thermistor;Unitrode PTC 10% 1/8W
*SYM=THERM2
.SUBCKT R428182K 1 2 3
B1 1 2 I=(V(1)-V(2))/(1.8K*EXP(513*((1/298.15)-1/(V(3)+273.15))))
.ENDS
*UNITRODE PTC 10% 1/8W
**********
*SRC=RTH22/8182K;R228182K;Sensors;Thermistor;Unitrode PTC 10% 1/8W
*SYM=THERM2
.SUBCKT R228182K 1 2 3
B1 1 2 I=(V(1)-V(2))/(1.8K*EXP(513*((1/298.15)-1/(V(3)+273.15))))
.ENDS
*UNITRODE PTC 10% 1/8W
**********
*SRC=TM1/4182K;TM14182K;Sensors;Thermistor;Unitrode PTC 10% 1/4W
*SYM=THERM2
.SUBCKT TM14182K 1 2 3
B1 1 2 I=(V(1)-V(2))/(1.8K*EXP(513*((1/298.15)-1/(V(3)+273.15))))
.ENDS
*UNITRODE PTC 10% 1/4W
**********
*SRC=TG1/8222J;TG18222J;Sensors;Thermistor;Unitrode PTC 5% 1/8W
*SYM=THERM2
.SUBCKT TG18222J 1 2 3
B1 1 2 I=(V(1)-V(2))/(2.2K*EXP(513*((1/298.15)-1/(V(3)+273.15))))
.ENDS
*UNITRODE PTC 5% 1/8W
**********
*SRC=TM1/8222J;TM18222J;Sensors;Thermistor;Unitrode PTC 5% 1/8W
*SYM=THERM2
.SUBCKT TM18222J 1 2 3
B1 1 2 I=(V(1)-V(2))/(2.2K*EXP(513*((1/298.15)-1/(V(3)+273.15))))
.ENDS
*UNITRODE PTC 5% 1/8W
**********
*SRC=RTH42/8222J;R428222J;Sensors;Thermistor;Unitrode PTC 5% 1/8W
*SYM=THERM2
.SUBCKT R428222J 1 2 3
B1 1 2 I=(V(1)-V(2))/(2.2K*EXP(513*((1/298.15)-1/(V(3)+273.15))))
.ENDS
*UNITRODE PTC 5% 1/8W
**********
*SRC=RTH22/8222J;R228222J;Sensors;Thermistor;Unitrode PTC 5% 1/8W
*SYM=THERM2
.SUBCKT R228222J 1 2 3
B1 1 2 I=(V(1)-V(2))/(2.2K*EXP(513*((1/298.15)-1/(V(3)+273.15))))
.ENDS
*UNITRODE PTC 5% 1/8W
**********
*SRC=TM1/4222J;TM14222J;Sensors;Thermistor;Unitrode PTC 5% 1/4W
*SYM=THERM2
.SUBCKT TM14222J 1 2 3
B1 1 2 I=(V(1)-V(2))/(2.2K*EXP(513*((1/298.15)-1/(V(3)+273.15))))
.ENDS
*UNITRODE PTC 5% 1/4W
**********
*SRC=TG1/8222K;TG18222K;Sensors;Thermistor;Unitrode PTC 10% 1/8W
*SYM=THERM2
.SUBCKT TG18222K 1 2 3
B1 1 2 I=(V(1)-V(2))/(2.2K*EXP(513*((1/298.15)-1/(V(3)+273.15))))
.ENDS
*UNITRODE PTC 10% 1/8W
**********
*SRC=TM1/8222K;TM18222K;Sensors;Thermistor;Unitrode PTC 10% 1/8W
*SYM=THERM2
.SUBCKT TM18222K 1 2 3
B1 1 2 I=(V(1)-V(2))/(2.2K*EXP(513*((1/298.15)-1/(V(3)+273.15))))
.ENDS
*UNITRODE PTC 10% 1/8W
**********
*SRC=RTH42/8222K;R428222K;Sensors;Thermistor;Unitrode PTC 10% 1/8W
*SYM=THERM2
.SUBCKT R428222K 1 2 3
B1 1 2 I=(V(1)-V(2))/(2.2K*EXP(513*((1/298.15)-1/(V(3)+273.15))))
.ENDS
*UNITRODE PTC 10% 1/8W
**********
*SRC=RTH22/8222K;R228222K;Sensors;Thermistor;Unitrode PTC 10% 1/8W
*SYM=THERM2
.SUBCKT R228222K 1 2 3
B1 1 2 I=(V(1)-V(2))/(2.2K*EXP(513*((1/298.15)-1/(V(3)+273.15))))
.ENDS
*UNITRODE PTC 10% 1/8W
**********
*SRC=TM1/4222K;TM14222K;Sensors;Thermistor;Unitrode PTC 10% 1/4W
*SYM=THERM2
.SUBCKT TM14222K 1 2 3 
B1 1 2 I=(V(1)-V(2))/(2.2K*EXP(513*((1/298.15)-1/(V(3)+273.15))))
.ENDS
*UNITRODE PTC 10% 1/4W
**********
