* TLV2211 OPERATIONAL AMPLIFIER "MACROMODEL" SUBCIRCUIT
* CREATED USING PARTS RELEASE 4.03 ON 04/26/96 AT 12:39
* REV (N/A)  3 VOLT MODEL
* CONNECTIONS:   NON-INVERTING INPUT
*                | INVERTING INPUT
*                | | POSITIVE POWER SUPPLY
*                | | | NEGATIVE POWER SUPPLY
*                | | | | OUTPUT
*                | | | | |
.SUBCKT TLV2211_TI_3  1 2 3 4 5
*
  C1   11 12 10.86E-12
  C2    6  7 50.00E-12
  DC    5 53 DX
  DE   54  5 DX
  DLP  90 91 DX
  DLN  92 90 DX
  DP    4  3 DX
  EGND 99  0 POLY(2) (3,0) (4,0) 0 .5 .5
  FB 7 99 POLY(5) VB VC VE VLP VLN 0 3.006E6 -3E6 3E6 3E6 -3E6
  GA    6  0 11 12 10.05E-6
  GCM 0  6 10 99 1316.6E-12
  ISS   3 10 DC 1.250E-6
  HLIM 90  0 VLIM 1K
  J1   11  2 10 JX
  J2   12  1 10 JX
  R2    6  9 100.0E3
  RD1  60 11 99.47E3
  RD2  60 12 99.47E3
  RO1   8  5 50
  RO2   7 99 150
  RP 3  4 273.5E3
  RSS  10 99 160.0E6
  VAD  60 4 -0.5
  VB    9  0 DC 0
  VC 3 53 DC .56
  VE   54  4 DC .56
  VLIM  7  8 DC 0
  VLP  91  0 DC 0
  VLN 0 92 DC 2.5
.MODEL DX D(IS=800.0E-18)
.MODEL JX PJF(IS=500.0E-15 BETA=131.7E-6 VTO=-.02)
.ENDS
* TLV2362 OPERATIONAL AMPLIFIER "MACROMODEL" SUBCIRCUIT
* CREATED USING PARTS RELEASE 4.03 ON 01/05/96 AT 11:21
*
* (REV N/A) SUPPLY VOLTAGE +/-1.5V   (LEVEL II MODEL)
* CONNECTIONS:   NON-INVERTING INPUT
*                | INVERTING INPUT
*                | | POSITIVE POWER SUPPLY
*                | | | NEGATIVE POWER SUPPLY
*                | | | | OUTPUT
*                | | | | |
.SUBCKT TLV2362_TI_3_2  1 2 3 4 5
*
  C1   11 12 4.408E-12
  C2 6  7 37.00E-12
  C3 87 0 10.64E-9
  CPSR 85 86 15.9E-9
  DCM+ 81 82 DX
  DCM- 83 81 DX
  DC    5 53 DX
  DE   54  5 DX
  DLP  90 91 DX
  DLN  92 90 DX
  DP    4  3 DX
  ECMR 84 99 (2 99) 1
  EGND 99  0 POLY(2) (3,0) (4,0) 0 .5 .5
  EPSR 85 0 POLY(1) (3,4) -6E-6 2.0E-6
  ENSE 89 2 POLY(1) (88,0) 1.0E-3  1
  FB 7 99 POLY(6) VB VC VE VLP VLN VPSR 0 12.74E3 -40E6 40E6 40E6 -40E6 13E6
  GA    6  0 11 12 1.885E-3
  GCM 0  6 10 99 375.2E-9
  GPSR 85 86 (85,86) 100E-6
  GRC1 4 11 (4,11) 1.885E-3
  GRC2 4 12 (4,12) 1.885E-3
  GRE1 13 10 (13,10) 8.5689E-3
  GRE2 14 10 (14,10) 8.5689E-3
  HLIM 90  0 VLIM 1K
  HCMR 80 1 POLY(2) VCM+ VCM- 0 1E2 1E2
  IRP 3 4 1.275E-3
  IEE 3 10 DC 125.0E-6
  IIO 2 0 5E-9
  I1 88 0 1E-21
  Q1   11  89 13 QX
  Q2   12  80 14 QX
  R2    6  9 100.0E3
  RCM 84 81 1K
  REE  10 99 1.599E6
  RN1 87 0 2.55E8
  RN2 87 88 3.25E3
  RO1   8  5 50
  RO2   7 99 25
  VCM+ 82 99 0.0
  VCM- 83 99 -0.0
  VB    9  0 DC 0
  VC 3 53 DC .56
  VE   54  4 DC .56
  VLIM  7  8 DC 0
  VLP  91  0 DC .5
  VLN   0 92 DC 20
  VPSR 0 86 DC 0
.MODEL DX D(IS=800.0E-18)
.MODEL QX PNP(IS=800.0E-18 BF=3.125E3)
.ENDS
* TLV2211 OPERATIONAL AMPLIFIER "MACROMODEL" SUBCIRCUIT
* CREATED USING PARTS RELEASE 4.03 ON 04/26/96 AT 08:34
* REV (N/A)  5 VOLT MODEL
* CONNECTIONS:   NON-INVERTING INPUT
*                | INVERTING INPUT
*                | | POSITIVE POWER SUPPLY
*                | | | NEGATIVE POWER SUPPLY
*                | | | | OUTPUT
*                | | | | |
.SUBCKT TLV2211_TI_5  1 2 3 4 5
*
  C1   11 12 8.86E-12
  C2    6  7 50.00E-12
  DC    5 53 DX
  DE   54  5 DX
  DLP  90 91 DX
  DLN  92 90 DX
  DP    4  3 DX
  EGND 99  0 POLY(2) (3,0) (4,0) 0 .5 .5
  FB 7 99 POLY(5) VB VC VE VLP VLN 0 4.29E6 -6E6 6E6 6E6 -6E6
  GA    6  0 11 12 9.425E-6
  GCM 0  6 10 99 1320.2E-12
  ISS   3 10 DC 1.250E-6
  HLIM 90  0 VLIM 1K
  J1   11  2 10 JX
  J2   12  1 10 JX
  R2    6  9 100.0E3
  RD1  60 11 106.1E3
  RD2  60 12 106.1E3
  RO1   8  5 50
  RO2   7 99 150
  RP	3  4 419.2E3
  RSS  10 99 160.0E6
  VAD  60 4 -.5
  VB    9  0 DC 0
  VC 3 53 DC .55
  VE   54  4 DC .55
  VLIM  7  8 DC 0
  VLP  91  0 DC 0.1
  VLN 0 92 DC 2.6
.MODEL DX D(IS=800.0E-18)
.MODEL JX PJF(IS=500.0E-15 BETA=166.5E-6 VTO=-.004)
.ENDS
* TLV2221 OPERATIONAL AMPLIFIER "MACROMODEL" SUBCIRCUIT
* CREATED USING PARTS RELEASE 4.03 ON 06/17/96 AT 14:24
* REV(N/A)  3 VOLT MODEL
* CONNECTIONS:   NON-INVERTING INPUT
*                | INVERTING INPUT
*                | | POSITIVE POWER SUPPLY
*                | | | NEGATIVE POWER SUPPLY
*                | | | | OUTPUT
*                | | | | |
.SUBCKT TLV2221_TI_3  1 2 3 4 5
*
  C1   11 12 12.24E-12
  C2    6  7 50.00E-12
  DC    5 53 DX
  DE   54  5 DX
  DLP  90 91 DX
  DLN  92 90 DX
  DP    4  3 DX
  EGND 99  0 POLY(2) (3,0) (4,0) 0 .5 .5
  FB 7 99 POLY(5) VB VC VE VLP VLN 0 440.8E3 -80E3 80E3 80E3 -80E3
  GA    6  0 11 12 78.54E-6
  GCM 0  6 10 99 12.439E-9
  ISS   3 10 DC 9.000E-6
  HLIM 90  0 VLIM 1K
  J1   11  2 10 JX
  J2   12  1 10 JX
  R2    6  9 100.0E3
  RD1 60 11 12.73E3
  RD2 60 12 12.73E3
  RO1   8  5 45
  RO2   7 99 45
  RP 3  4 32.97E3
  RSS  10 99 22.22E6
  VAD  60 4 -.5
  VB    9  0 DC 0
  VC 3 53 DC .655
  VE   54  4 DC .655
  VLIM  7  8 DC 0
  VLP  91  0 DC 2.4
  VLN 0 92 DC 4.4
.MODEL DX D(IS=800.0E-18)
.MODEL JX PJF(IS=500.0E-15 BETA=1.371E-3 VTO=-.01)
.ENDS
* TLV2361 OPERATIONAL AMPLIFIER "MACROMODEL" SUBCIRCUIT
* CREATED USING PARTS RELEASE 4.03 ON 01/05/96 AT 11:21
*
* (REV N/A) SUPPLY VOLTAGE +/-1.5V   (LEVEL II MODEL)
* CONNECTIONS:   NON-INVERTING INPUT
*                | INVERTING INPUT
*                | | POSITIVE POWER SUPPLY
*                | | | NEGATIVE POWER SUPPLY
*                | | | | OUTPUT
*                | | | | |
.SUBCKT TLV2361_TI_3_2  1 2 3 4 5
*
  C1   11 12 4.408E-12
  C2 6  7 37.00E-12
  C3 87 0 10.64E-9
  CPSR 85 86 15.9E-9
  DCM+ 81 82 DX
  DCM- 83 81 DX
  DC    5 53 DX
  DE   54  5 DX
  DLP  90 91 DX
  DLN  92 90 DX
  DP    4  3 DX
  ECMR 84 99 (2 99) 1
  EGND 99  0 POLY(2) (3,0) (4,0) 0 .5 .5
  EPSR 85 0 POLY(1) (3,4) -6E-6 2.0E-6
  ENSE 89 2 POLY(1) (88,0) 1.0E-3  1
  FB 7 99 POLY(6) VB VC VE VLP VLN VPSR 0 12.74E3 -40E6 40E6 40E6 -40E6 13E6
  GA    6  0 11 12 1.885E-3
  GCM 0  6 10 99 375.2E-9
  GPSR 85 86 (85,86) 100E-6
  GRC1 4 11 (4,11) 1.885E-3
  GRC2 4 12 (4,12) 1.885E-3
  GRE1 13 10 (13,10) 8.5689E-3
  GRE2 14 10 (14,10) 8.5689E-3
  HLIM 90  0 VLIM 1K
  HCMR 80 1 POLY(2) VCM+ VCM- 0 1E2 1E2
  IRP 3 4 1.275E-3
  IEE 3 10 DC 125.0E-6
  IIO 2 0 5E-9
  I1 88 0 1E-21
  Q1   11  89 13 QX
  Q2   12  80 14 QX
  R2    6  9 100.0E3
  RCM 84 81 1K
  REE  10 99 1.599E6
  RN1 87 0 2.55E8
  RN2 87 88 3.25E3
  RO1   8  5 50
  RO2   7 99 25
  VCM+ 82 99 0.0
  VCM- 83 99 -0.0
  VB    9  0 DC 0
  VC 3 53 DC .56
  VE   54  4 DC .56
  VLIM  7  8 DC 0
  VLP  91  0 DC .5
  VLN   0 92 DC 20
  VPSR 0 86 DC 0
.MODEL DX D(IS=800.0E-18)
.MODEL QX PNP(IS=800.0E-18 BF=3.125E3)
.ENDS
* TLV2221 OPERATIONAL AMPLIFIER "MACROMODEL" SUBCIRCUIT
* CREATED USING PARTS RELEASE 4.03 ON 05/29/96 AT 15:56
* REV(N/A)  5 VOLT MODEL
* CONNECTIONS:   NON-INVERTING INPUT
*                | INVERTING INPUT
*                | | POSITIVE POWER SUPPLY
*                | | | NEGATIVE POWER SUPPLY
*                | | | | OUTPUT
*                | | | | |
.SUBCKT TLV2221_TI_5  1 2 3 4 5
*
  C1   11 12 12.53E-12
  C2    6  7 50.00E-12
  DC    5 53 DX
  DE   54  5 DX
  DLP  90 91 DX
  DLN  92 90 DX
  DP    4  3 DX
  EGND 99  0 POLY(2) (3,0) (4,0) 0 .5 .5
  FB 7 99 POLY(5) VB VC VE VLP VLN 0 893.6E3 -90E3 90E3 90E3 -90E3
  GA    6  0 11 12 94.25E-6
  GCM 0  6 10 99 9.300E-9
  ISS   3 10 DC 9.000E-6
  HLIM 90  0 VLIM 1K
  J1   11  2 10 JX
  J2   12  1 10 JX
  R2    6  9 100.0E3
  RD1 60 11 10.61E3
  RD2 60 12 10.61E3
  RO1   8  5 35
  RO2   7 99 35
  RP 3  4 49.50E3
  RSS  10 99 22.22E6
  VAD  60 4 -.5
  VB    9  0 DC 0
  VC 3 53 DC .666
  VE   54  4 DC .666
  VLIM  7  8 DC 0
  VLP  91  0 DC 3.4
  VLN 0 92 DC 11.4
.MODEL DX D(IS=800.0E-18)
.MODEL JX PJF(IS=500.0E-15 BETA=1.527E-3 VTO=-.001)
.ENDS
* TLV2231 OPERATIONAL AMPLIFIER "MACROMODEL" SUBCIRCUIT
* CREATED USING PARTS RELEASE 4.03 ON 05/30/96 AT 10:21
* REV(N/A) 5 VOLT MODEL (LEVEL II)
* CONNECTIONS:   NON-INVERTING INPUT
*                | INVERTING INPUT
*                | | POSITIVE POWER SUPPLY
*                | | | NEGATIVE POWER SUPPLY
*                | | | | OUTPUT
*                | | | | |
.SUBCKT TLV2231_TI_5_2  1 2 3 4 5
*
  C1   11 12 13.51E-12
  C2    6  7 50.00E-12
  CPSR 85 86 5.3E-9
  DCM+ 81 82 DX
  DCM- 83 81 DX
  DC    5 53 DX
  DE   54  5 DX
  DLP  90 91 DX
  DLN  92 90 DX
  DP    4  3 DX
  ECMR 84 99 (2,99) 1
  EGND 99  0 POLY(2) (3,0) (4,0) 0 .5 .5
  EPSR 85 0 POLY(1) (3,4) -500E-6 100E-6
  ENSE 89 2 POLY(1) (88,0) 400E-6 1
  FB 7 99 POLY(6) VB VC VE VLP VLN VPSR 0 90.83E3 -10E3 10E3 10E3 -10E3 10.5E4
  GA    6  0 11 12 314.2E-6
  GCM 0  6 10 99 242.35E-9
  GPSR 85 86 (85,86) 100E-6
  GRD1 60 11 (60,11) 314.16E-6
  GRD2 60 12 (60,12) 314.16E-6
  HLIM 90  0 VLIM 1K
  HCMR 80 1 POLY(2) VCM+ VCM- 0 1E2 1E2
  IRP 3 4 763E-6
  ISS 3 10 DC 87.00E-6
  IIO 2 0 .5E-12
  I1 88 0 1E-21
  J1   11  89 10 JX
  J2   12  80 10 JX
  R2    6  9 100.0E3
  RCM 84 81 1K
  RN1 88 0 5E3
  RO1   8  5 25
  RO2   7 99 25
  RSS  10 99 2.500E6
  VAD  60  4  -.5
  VCM+ 82 99 1.1
  VCM- 83 99 -2.4
  VB    9  0 DC 0
  VC 3 53 DC .795
  VE   54  4 DC .795
  VLIM  7  8 DC 0
  VLP  91  0 DC 12.4
  VLN 0 92 DC 17.4
  VPSR 0 86 DC 0
.MODEL DX D(IS=800.0E-18)
.MODEL JX PJF(IS=500.0E-15 BETA=2.939E-3 VTO=-.065 KF=6.4E-16)
.ENDS
* TLV2231 OPERATIONAL AMPLIFIER "MACROMODEL" SUBCIRCUIT
* CREATED USING PARTS RELEASE 4.03 ON 06/19/96 AT 14:18
* REV(N/A) 3 VOLT MODEL
* CONNECTIONS:   NON-INVERTING INPUT
*                | INVERTING INPUT
*                | | POSITIVE POWER SUPPLY
*                | | | NEGATIVE POWER SUPPLY
*                | | | | OUTPUT
*                | | | | |
.SUBCKT TLV2231_TI_3  1 2 3 4 5
*
  C1   11 12 12.3E-12
  C2    6  7 50.00E-12
  DC    5 53 DX
  DE   54  5 DX
  DLP  90 91 DX
  DLN  92 90 DX
  DP    4  3 DX
  EGND 99  0 POLY(2) (3,0) (4,0) 0 .5 .5
  FB 7 99 POLY(5) VB VC VE VLP VLN 0 114E3 -20E3 20E3 20E3 -20E3
  GA    6  0 11 12 314.2E-6
  GCM 0  6 10 99 210.5E-9
  ISS 3 10 DC 71.20E-6
  HLIM 90  0 VLIM 1K
  J1   11  2 10 JX
  J2   12  1 10 JX
  R2    6  9 100.0E3
  RD1 60 11 3.183E3
  RD2 60 12 3.183E3
  RO1   8  5 50
  RO2   7 99 25
  RP 3  4 4.420E3
  RSS  10 99 3.200E6
  VAD  60 4 -.5
  VB    9  0 DC 0
  VC 3 53 DC .705
  VE   54  4 DC .705
  VLIM  7  8 DC 0
  VLP  91  0 DC 8.4
  VLN 0 92 DC 13.4
.MODEL DX D(IS=800.0E-18)
.MODEL JX PJF(IS=500.0E-15 BETA=3.158E-3 VTO=-.055)
.ENDS
* TLV2231 OPERATIONAL AMPLIFIER "MACROMODEL" SUBCIRCUIT
* CREATED USING PARTS RELEASE 4.03 ON 06/19/96 AT 14:18
* REV(N/A) 3 VOLT MODEL (LEVEL II)
* CONNECTIONS:   NON-INVERTING INPUT
*                | INVERTING INPUT
*                | | POSITIVE POWER SUPPLY
*                | | | NEGATIVE POWER SUPPLY
*                | | | | OUTPUT
*                | | | | |
.SUBCKT TLV2231_TI_3_2  1 2 3 4 5
*
  C1   11 12 12.3E-12
  C2    6  7 50.00E-12
  CPSR 85 86 5.3E-9
  DCM+ 81 82 DX
  DCM- 83 81 DX
  DC    5 53 DX
  DE   54  5 DX
  DLP  90 91 DX
  DLN  92 90 DX
  DP    4  3 DX
  ECMR 84 99 (2,99) 1
  EGND 99  0 POLY(2) (3,0) (4,0) 0 .5 .5
  EPSR 85 0 POLY(1) (3,4) -300E-6  100E-6
  ENSE 89 2 POLY(1) (88,0) 400E-6 1
  FB 7 99 POLY(6) VB VC VE VLP VLN VPSR 0 114E3 -20E3 20E3 20E3 -20E3 12.5E4
  GA    6  0 11 12 314.2E-6
  GCM 0  6 10 99 210.5E-9
  GPSR 85 86 (85,86) 100E-6
  GRD1 60 11 (60,11) 314.17E-6
  GRD2 60 12 (60,12) 314.17E-6
  HLIM 90  0 VLIM 1K
  HCMR 80 1 POLY(2) VCM+ VCM- 0 1E2 1E2
  IRP 3 4 678.7E-6
  ISS 3 10 DC 71.20E-6
  IIO  2 0 .5E-12
  I1 88 0 1E-21
  J1   11  89 10 JX
  J2   12  80 10 JX
  R2    6  9 100.0E3
  RCM 84 81 1K
  RN1 88 0 10E3
  RO1   8  5 50
  RO2   7 99 25
  RSS  10 99 3.200E6
  VAD  60 4 -.5
  VCM+ 82 99 0.2
  VCM- 83 99 -1.5
  VB    9  0 DC 0
  VC 3 53 DC .705
  VE   54  4 DC .705
  VLIM  7  8 DC 0
  VLP  91  0 DC 8.4
  VLN 0 92 DC 13.4
  VPSR 0 86 DC 0
.MODEL DX D(IS=800.0E-18)
.MODEL JX PJF(IS=500.0E-15 BETA=3.158E-3 VTO=-.055 KF=6.6E-16)
.ENDS
* TLV2231 OPERATIONAL AMPLIFIER "MACROMODEL" SUBCIRCUIT
* CREATED USING PARTS RELEASE 4.03 ON 05/30/96 AT 10:21
* REV(N/A) 5 VOLT MODEL
* CONNECTIONS:   NON-INVERTING INPUT
*                | INVERTING INPUT
*                | | POSITIVE POWER SUPPLY
*                | | | NEGATIVE POWER SUPPLY
*                | | | | OUTPUT
*                | | | | |
.SUBCKT TLV2231_TI_5  1 2 3 4 5
*
  C1   11 12 13.51E-12
  C2    6  7 50.00E-12
  DC    5 53 DX
  DE   54  5 DX
  DLP  90 91 DX
  DLN  92 90 DX
  DP    4  3 DX
  EGND 99  0 POLY(2) (3,0) (4,0) 0 .5 .5
  FB 7 99 POLY(5) VB VC VE VLP VLN 0 90.83E3 -10E3 10E3 10E3 -10E3
  GA    6  0 11 12 314.2E-6
  GCM 0  6 10 99 242.35E-9
  ISS 3 10 DC 87.00E-6
  HLIM 90  0 VLIM 1K
  J1   11  2 10 JX
  J2   12  1 10 JX
  R2    6  9 100.0E3
  RD1 60 11 3.183E3
  RD2 60 12 3.183E3
  RO1   8  5 25
  RO2   7 99 25
  RP 3  4 6.553E3
  RSS  10 99 2.500E6
  VAD  60  4  -.5
  VB    9  0 DC 0
  VC 3 53 DC .795
  VE   54  4 DC .795
  VLIM  7  8 DC 0
  VLP  91  0 DC 12.4
  VLN 0 92 DC 17.4
.MODEL DX D(IS=800.0E-18)
.MODEL JX PJF(IS=500.0E-15 BETA=2.939E-3 VTO=-.065)
.ENDS
* TLV2211 OPERATIONAL AMPLIFIER "MACROMODEL" SUBCIRCUIT
* CREATED USING PARTS RELEASE 4.03 ON 04/26/96 AT 08:34
* REV (N/A)  5 VOLT MODEL (LEVEL II)
* CONNECTIONS:   NON-INVERTING INPUT
*                | INVERTING INPUT
*                | | POSITIVE POWER SUPPLY
*                | | | NEGATIVE POWER SUPPLY
*                | | | | OUTPUT
*                | | | | |
.SUBCKT TLV2211_TI_5_2  1 2 3 4 5
*
  C1   11 12 8.86E-12
  C2    6  7 50.00E-12
  CPSR 85 86 159.2E-9
  DCM+ 81 82 DX
  DCM- 83 81 DX
  DC    5 53 DX
  DE   54  5 DX
  DLP  90 91 DX
  DLN  92 90 DX
  DP    4  3 DX
  ECMR 84 99 (2,99) 1
  EGND 99  0 POLY(2) (3,0) (4,0) 0 .5 .5
  EPSR 85 0 POLY(1) (3,4) -500E-6 100E-6
  ENSE 89 2 POLY(1) (88,0) 500E-6 1
  FB 7 99 POLY(6) VB VC VE VLP VLN VPSR 0 4.29E6 -6E6 6E6 6E6 -6E6 1.6E5
  GA    6  0 11 12 9.425E-6
  GCM 0  6 10 99 1320.2E-12
  GPSR 85 86 (85,86) 100E-6
  GRD1 60 11 (60,11) 9.425E-6
  GRD2 60 12 (60,12) 9.425E-6
  HLIM 90  0 VLIM 1K
  HCMR 80 1 POLY(2) VCM+ VCM- 0 1E2 1E2
  IRP 3 4 11.93E-6
  ISS   3 10 DC 1.250E-6
  IIO 2 0 0.5E-12
  I1 88 0 1E-21
  J1   11  89 10 JX
  J2   12  80 10 JX
  R2    6  9 100.0E3
  RCM  84 81 1E3
  RN1  88 0 1E2
  RO1   8  5 50
  RO2   7 99 150
  RSS  10 99 160.0E6
  VCM+ 82 99 0.7
  VCM- 83 99 -2.5
  VAD  60 4 -.5
  VB    9  0 DC 0
  VC 3 53 DC .55
  VE   54  4 DC .55
  VLIM  7  8 DC 0
  VLP  91  0 DC 0.1
  VLN 0 92 DC 2.6
  VPSR 0 86 DC 0
.MODEL DX D(IS=800.0E-18)
.MODEL JX PJF(IS=500.0E-15 BETA=166.5E-6 VTO=-.004 KF=1.4E-17)
.ENDS
* TLV2361 OPERATIONAL AMPLIFIER "MACROMODEL" SUBCIRCUIT
* CREATED USING PARTS RELEASE 4.03 ON 01/05/96 AT 11:21
*
* (REV N/A) SUPPLY VOLTAGE +/-1.5V
* CONNECTIONS:   NON-INVERTING INPUT
*                | INVERTING INPUT
*                | | POSITIVE POWER SUPPLY
*                | | | NEGATIVE POWER SUPPLY
*                | | | | OUTPUT
*                | | | | |
.SUBCKT TLV2361_TI_3  1 2 3 4 5
*
  C1   11 12 4.408E-12
  C2 6  7 37.00E-12
  DC    5 53 DX
  DE   54  5 DX
  DLP  90 91 DX
  DLN  92 90 DX
  DP    4  3 DX
  EGND 99  0 POLY(2) (3,0) (4,0) 0 .5 .5
  FB 7 99 POLY(5) VB VC VE VLP VLN 0 12.74E3 -40E6 40E6 40E6 -40E6
  GA    6  0 11 12 1.885E-3
  GCM 0  6 10 99 375.2E-9
  IEE   3 10 DC 125.0E-6
  HLIM 90  0 VLIM 1K
  Q1   11  2 13 QX
  Q2   12  1 14 QX
  R2    6  9 100.0E3
  RC1   4 11 530.5
  RC2   4 12 530.5
  RE1  13 10 116.7
  RE2  14 10 116.7
  REE  10 99 1.599E6
  RO1   8  5 50
  RO2   7 99 25
  RP    3  4 2.353E3
  VB    9  0 DC 0
  VC 3 53 DC .56
  VE   54  4 DC .56
  VLIM  7  8 DC 0
  VLP  91  0 DC .5
  VLN   0 92 DC 20
.MODEL DX D(IS=800.0E-18)
.MODEL QX PNP(IS=800.0E-18 BF=3.125E3)
.ENDS
* TLV2221 OPERATIONAL AMPLIFIER "MACROMODEL" SUBCIRCUIT
* CREATED USING PARTS RELEASE 4.03 ON 06/17/96 AT 14:24
* REV(N/A)  3 VOLT MODEL (LEVEL II)
* CONNECTIONS:   NON-INVERTING INPUT
*                | INVERTING INPUT
*                | | POSITIVE POWER SUPPLY
*                | | | NEGATIVE POWER SUPPLY
*                | | | | OUTPUT
*                | | | | |
.SUBCKT TLV2221_TI_3_2  1 2 3 4 5
*
  C1   11 12 12.24E-12
  C2    6  7 50.00E-12
  CPSR	85 86 53E-9
  DCM+	81 82 DX
  DCM-	83 81 DX
  DC    5 53 DX
  DE   54  5 DX
  DLP  90 91 DX
  DLN  92 90 DX
  DP    4  3 DX
  ECMR 84 99 (2,99) 1
  EGND 99  0 POLY(2) (3,0) (4,0) 0 .5 .5
  EPSR 85 0 POLY(1) (3,4) -300E-6  100E-6
  ENSE 89 2 POLY(1) (88,0) 400E-6 1
  FB 7 99 POLY(6) VB VC VE VLP VLN VPSR 0 440.8E3 -80E3 80E3 80E3 -80E3 12E4
  GA    6  0 11 12 78.54E-6
  GCM 0  6 10 99 12.439E-9
  GPSR 85 86 (85,86) 100E-6
  GRD1 60 11 (60,11) 78.555E-6
  GRD2 60 12 (60,12) 78.555E-6
  HLIM 90  0 VLIM 1K
  HCMR 80 1 POLY(2) VCM+ VCM- 0 1E2 1E2
  IRP 3 4 90.99E-6
  ISS   3 10 DC 9.000E-6
  IIO 2 0 .5E-12
  I1 88 0 1E-21
  J1   11  89 10 JX
  J2   12  80 10 JX
  R2    6  9 100.0E3
  RCM 84 81 1K
  RN1 88 0 13E3
  RO1   8  5 45
  RO2   7 99 45
  RSS  10 99 22.22E6
  VAD  60 4 -.5
  VCM+ 82 99 0.2
  VCM- 83 99 -1.5
  VB    9  0 DC 0
  VC 3 53 DC .655
  VE   54  4 DC .655
  VLIM  7  8 DC 0
  VLP  91  0 DC 2.4
  VLN 0 92 DC 4.4
  VPSR 0 86 DC 0
.MODEL DX D(IS=800.0E-18)
.MODEL JX PJF(IS=500.0E-15 BETA=1.371E-3 VTO=-.005 KF=3.8E-16)
.ENDS
* TLV2361 OPERATIONAL AMPLIFIER "MACROMODEL" SUBCIRCUIT
* CREATED USING PARTS RELEASE 4.03 ON 01/05/96 AT 15:51
*
* REV (N/A) SUPPLY VOLTAGE +/-2.5V
* CONNECTIONS:   NON-INVERTING INPUT
*                | INVERTING INPUT
*                | | POSITIVE POWER SUPPLY
*                | | | NEGATIVE POWER SUPPLY
*                | | | | OUTPUT
*                | | | | |
.SUBCKT TLV2361_TI_5  1 2 3 4 5
*
  C1   11 12 4.408E-12
  C2 6  7 40.00E-12
  DC    5 53 DX
  DE   54  5 DX
  DLP  90 91 DX
  DLN  92 90 DX
  DP    4  3 DX
  EGND 99  0 POLY(2) (3,0) (4,0) 0 .5 .5
  FB 7 99 POLY(5) VB VC VE VLP VLN 0 17.44E3 -40E6 40E6 40E6 -40E6
  GA    6  0 11 12 2.199E-3
  GCM 0  6 10 99 138.7E-9
  IEE   3 10 DC 150.0E-6
  HLIM 90  0 VLIM 1K
  Q1   11  2 13 QX
  Q2   12  1 14 QX
  R2    6  9 100.0E3
  RC1   4 11 454.7
  RC2   4 12 454.7
  RE1  13 10 109.8
  RE2  14 10 109.8
  REE  10 99 1.333E6
  RO1   8  5 50
  RO2   7 99 25
  RP 3  4 3.125E3
  VB    9  0 DC 0
  VC 3 53 DC .57
  VE   54  4 DC .57
  VLIM  7  8 DC 0
  VLP  91  0 DC .5
  VLN   0 92 DC 20
.MODEL DX D(IS=800.0E-18)
.MODEL QX PNP(IS=800.0E-18 BF=3.750E3)
.ENDS
* TLV2362 OPERATIONAL AMPLIFIER "MACROMODEL" SUBCIRCUIT
* CREATED USING PARTS RELEASE 4.03 ON 01/05/96 AT 11:21
*
* (REV N/A) SUPPLY VOLTAGE +/-1.5V
* CONNECTIONS:   NON-INVERTING INPUT
*                | INVERTING INPUT
*                | | POSITIVE POWER SUPPLY
*                | | | NEGATIVE POWER SUPPLY
*                | | | | OUTPUT
*                | | | | |
.SUBCKT TLV2362_TI_3  1 2 3 4 5
*
  C1   11 12 4.408E-12
  C2 6  7 37.00E-12
  DC    5 53 DX
  DE   54  5 DX
  DLP  90 91 DX
  DLN  92 90 DX
  DP    4  3 DX
  EGND 99  0 POLY(2) (3,0) (4,0) 0 .5 .5
  FB 7 99 POLY(5) VB VC VE VLP VLN 0 12.74E3 -40E6 40E6 40E6 -40E6
  GA    6  0 11 12 1.885E-3
  GCM 0  6 10 99 375.2E-9
  IEE   3 10 DC 125.0E-6
  HLIM 90  0 VLIM 1K
  Q1   11  2 13 QX
  Q2   12  1 14 QX
  R2    6  9 100.0E3
  RC1   4 11 530.5
  RC2   4 12 530.5
  RE1  13 10 116.7
  RE2  14 10 116.7
  REE  10 99 1.599E6
  RO1   8  5 50
  RO2   7 99 25
  RP    3  4 2.353E3
  VB    9  0 DC 0
  VC 3 53 DC .56
  VE   54  4 DC .56
  VLIM  7  8 DC 0
  VLP  91  0 DC .5
  VLN   0 92 DC 20
.MODEL DX D(IS=800.0E-18)
.MODEL QX PNP(IS=800.0E-18 BF=3.125E3)
.ENDS
* TLV2221 OPERATIONAL AMPLIFIER "MACROMODEL" SUBCIRCUIT
* CREATED USING PARTS RELEASE 4.03 ON 05/29/96 AT 15:56
* REV(N/A)  5 VOLT MODEL (LEVEL II)
* CONNECTIONS:   NON-INVERTING INPUT
*                | INVERTING INPUT
*                | | POSITIVE POWER SUPPLY
*                | | | NEGATIVE POWER SUPPLY
*                | | | | OUTPUT
*                | | | | |
.SUBCKT TLV2221_TI_5_2  1 2 3 4 5
*
  C1   11 12 13.83E-12
  C2    6  7 50.00E-12
  CPSR 85 86 53E-9
  DCM+ 81 82 DX
  DCM- 83 81 DX
  DC    5 53 DX
  DE   54  5 DX
  DLP  90 91 DX
  DLN  92 90 DX
  DP    4  3 DX
  ECMR 84 99 (2,99) 1
  EGND 99  0 POLY(2) (3,0) (4,0) 0 .5 .5
  EPSR 85 0 POLY(1) (3,4) -500E-6  100E-6
  ENSE 89 2 POLY(1) (88,0) 400E-6 1
  FB 7 99 POLY(6) VB VC VE VLP VLN VPSR 0 893.6E3 -90E3 90E3 90E3 -90E3 26E4
  GA    6  0 11 12 94.25E-6
  GCM 0  6 10 99 9.300E-9
  GPSR 85 86 (85,86) 100E-6
  GRD1 60 11 (60,11) 94.25E-6
  GRD2 60 12 (60,12) 94.25E-6
  HLIM 90  0 VLIM 1K
  HCMR 80 1 POLY(2) VCM+ VCM- 0 1E2 1E2
  IRP 3 4 101E-6
  ISS   3 10 DC 9.000E-6
  IIO  2 0 .5E-12
  I1  88 0 1E-21
  J1   11  89 10 JX
  J2   12  80 10 JX
  R2    6  9 100.0E3
  RCM 84 81 1K
  RN1 88 0 13E3
  RO1   8  5 35
  RO2   7 99 35
  RSS  10 99 22.22E6
  VAD  60 4 -.5
  VCM+ 82 99 1.2
  VCM- 83 99 -2.3
  VB    9  0 DC 0
  VC 3 53 DC .666
  VE   54  4 DC .666
  VLIM  7  8 DC 0
  VLP  91  0 DC 3.4
  VLN 0 92 DC 11.4
  VPSR 0 86 DC 0
.MODEL DX D(IS=800.0E-18)
.MODEL JX PJF(IS=500.0E-15 BETA=1.527E-3 VTO=0.003 KF=2.4E-16)
.ENDS
* TLV2362 OPERATIONAL AMPLIFIER "MACROMODEL" SUBCIRCUIT
* CREATED USING PARTS RELEASE 4.03 ON 01/05/96 AT 15:51
*
* REV (N/A) SUPPLY VOLTAGE +/-2.5V
* CONNECTIONS:   NON-INVERTING INPUT
*                | INVERTING INPUT
*                | | POSITIVE POWER SUPPLY
*                | | | NEGATIVE POWER SUPPLY
*                | | | | OUTPUT
*                | | | | |
.SUBCKT TLV2362_TI_5  1 2 3 4 5
*
  C1   11 12 4.408E-12
  C2 6  7 40.00E-12
  DC    5 53 DX
  DE   54  5 DX
  DLP  90 91 DX
  DLN  92 90 DX
  DP    4  3 DX
  EGND 99  0 POLY(2) (3,0) (4,0) 0 .5 .5
  FB 7 99 POLY(5) VB VC VE VLP VLN 0 17.44E3 -40E6 40E6 40E6 -40E6
  GA    6  0 11 12 2.199E-3
  GCM 0  6 10 99 138.7E-9
  IEE   3 10 DC 150.0E-6
  HLIM 90  0 VLIM 1K
  Q1   11  2 13 QX
  Q2   12  1 14 QX
  R2    6  9 100.0E3
  RC1   4 11 454.7
  RC2   4 12 454.7
  RE1  13 10 109.8
  RE2  14 10 109.8
  REE  10 99 1.333E6
  RO1   8  5 50
  RO2   7 99 25
  RP 3  4 3.125E3
  VB    9  0 DC 0
  VC 3 53 DC .57
  VE   54  4 DC .57
  VLIM  7  8 DC 0
  VLP  91  0 DC .5
  VLN   0 92 DC 20
.MODEL DX D(IS=800.0E-18)
.MODEL QX PNP(IS=800.0E-18 BF=3.750E3)
.ENDS
*****************************************************************************
* TL431 MACROMODEL ***************3-26-92************************************
* REV N/A ****************************************************************DBB
*****************************************************************************
*              REFERENCE
*              |  ANODE
*              |  |  CATHODE
*              |  |  |
.SUBCKT  TL431_TI 1  2  3
V1  6  7  DC  1.4V
I1  2  4  1E-3
R1  1  2  1.2E6
R2  4  2  RMOD 2.495E3
R3  5  7  .2
D1  3  6  DMOD1
D2  2  3  DMOD1
D3  2  7  DMOD2
E1  5  2  POLY(2)  (4,2)  (1,2)  0  710  -710
.MODEL RMOD RES (TC1=1.4E-5 TC2=-1E-6)
.MODEL DMOD1 D (RS=.3)
.MODEL DMOD2 D (RS=1E-6)
.ENDS
******************************************************************************
* TLC555 TIMER MACROMODEL ****************************************************
****************************************4/1/92*****************************DBB
* REV N/A ********************************************************************
******************************************************************************
*                  COMMON
*                  |  TRIGGER
*                  |  |  OUTPUT
*                  |  |  |  RESET
*                  |  |  |  |  CONTROL
*                  |  |  |  |  |  THRESHOLD
*                  |  |  |  |  |  |  DISCHARGE
*                  |  |  |  |  |  |  |	VDD
*                  |  |  |  |  |  |  |	|
.SUBCKT  TLC555_TI    1  2  3  4  5  6  7  8
EREF 15 1 (8,1) .5
GSOURCE 8 3 (8,26) 12.5E-3
GSINK 3 1 (26,1) 67E-3
VD1 8 27 DC .8
VD2 28 1 DC .85
VREF 30 1 DC 1.2
C1 29 1 700E-15
RREF2 30 1 100E3
RREF 15 1 100E3
ROUT 3 1 100K
R1 6 1 500E9
R2 2 1 500E9
R3 8 5 75E3
R4 5 9 75E3
R5 9 1 75E3
R6 10 11 1E3
R7 13 14 1E3
R8 8 12 150E3
R9 4 8 500E9
R10 20 19 1E3
R11 16 17 1E3
R12 8 18 150E3
R13 8 21 150E3
R14 22 23 1E3
R15 8 26 150E3
R16 24 25 1E3
R19 7 1 500E9
R20 29 26 1E6
D1 1 11 DMOD
D2 12 11 DMOD
D3 12 14 DMOD
D4 1 14 DMOD
D5 18 17 DMOD
D6 1 17 DMOD
D7 18 19 DMOD
D8 1 19 DMOD
D9 21 14 DMOD
D10 21 25 DMOD
D11 1 23 DMOD
D12 18 23 DMOD
D13 26 25 DMOD
D14 1 25 DMOD1
D15 3 27 DMOD
D16 28 3 DMOD
E1 10 1 (6,5) 1000
E2 13 1 (2,9) 1000
E3 16 1 (15,12) 1000
E4 22 1 (15,21) 1000
E5 24 1 (15,18) 1000
E7 20 1 (4,30) 1000
M1 7 29 1 1 MOSMOD
.MODEL MOSMOD NMOS (LEVEL=1 KP=1 VTO=1 RD=5)
.MODEL DMOD D (RS=1E-6)
.MODEL DMOD1 D (RS=1E-6 IS=1E-9)
.ENDS
* TLV2211 OPERATIONAL AMPLIFIER "MACROMODEL" SUBCIRCUIT
* CREATED USING PARTS RELEASE 4.03 ON 04/26/96 AT 12:39
* REV (N/A)  3 VOLT MODEL (LEVEL II)
* CONNECTIONS:   NON-INVERTING INPUT
*                | INVERTING INPUT
*                | | POSITIVE POWER SUPPLY
*                | | | NEGATIVE POWER SUPPLY
*                | | | | OUTPUT
*                | | | | |
.SUBCKT TLV2211_TI_3_2  1 2 3 4 5
*
  C1   11 12 10.86E-12
  C2    6  7 50.00E-12
  CPSR 85 86 159.2E-9
  DCM+ 81 82 DX
  DCM- 83 81 DX
  DC    5 53 DX
  DE   54  5 DX
  DLP  90 91 DX
  DLN  92 90 DX
  DP    4  3 DX
  ECMR 84 99 (2,99) 1
  EGND 99  0 POLY(2) (3,0) (4,0) 0 .5 .5
  EPSR 85 0 POLY(1) (3,4) -300E-6  100E-6
  ENSE 89 2 POLY(1) (88,0) 500E-6 1
  FB 7 99 POLY(6) VB VC VE VLP VLN VPSR 0 3.006E6 -3E6 3E6 3E6 -3E6 1E5
  GA    6  0 11 12 10.05E-6
  GCM 0  6 10 99 1316.6E-12
  GPSR 85 86 (85,86) 100E-6
  GRD1 60 11 (60,11) 10.053E-6
  GRD2 60 12 (60,12) 10.053E-6
  HLIM 90  0 VLIM 1K
  HCMR 80 1 POLY(2) VCM+ VCM- 0 1E2 1E2
  IRP 3 4 10.97E-6
  ISS   3 10 DC 1.250E-6
  IIO 2 0 0.5E-12
  I1  88 0 1E-21
  J1   11  89 10 JX
  J2   12  80 10 JX
  R2    6  9 100.0E3
  RCM  84 81 1E3
  RN1  88 0 1E2
  RO1   8  5 50
  RO2   7 99 150
  VCM+ 82 99 0.2
  VCM- 83 99 -1.5
  RSS  10 99 160.0E6
  VAD  60 4 -0.5
  VB    9  0 DC 0
  VC 3 53 DC .56
  VE   54  4 DC .56
  VLIM  7  8 DC 0
  VLP  91  0 DC 0
  VLN 0 92 DC 2.5
  VPSR 0 86 DC 0
.MODEL DX D(IS=800.0E-18)
.MODEL JX PJF(IS=500.0E-15 BETA=131.7E-6 VTO=-.02 KF=1.4E-17)
.ENDS
* LT1016 VOLTAGE COMPARATOR "MACROMODEL" SUBCIRCUIT
* CREATED USING PARTS VERSION 4.03 ON 03/15/90 AT 13:02
* REV (N/A)
* NOTE: COMPONENTS ADDED TO MACROMODEL TO SIMULATE ACTIVE PULL-UP AND
* COMPLEMENTARY OUTPUTS
*
* CONNECTIONS:   NON-INVERTING INPUT
*                | INVERTING INPUT
*                | | POSITIVE POWER SUPPLY
*                | | | NEGATIVE POWER SUPPLY
*                | | | | Q OUTPUT
*                | | | | | GROUND
*                | | | | | | Q NOT OUTPUT
*                | | | | | | |
.SUBCKT LT1016_TI   1 2 3 4 5 6 21
*
  F1    3  9 V1 1
  IEE   7  4 DC 100.0E-6
  EVO 20 0 POLY(1) (3,0) -1.4 1          ;ADDED OUTPUT SUPPLY
  R1 20 5  33                            ;ADDED PULL-UP RESISTOR
  R2 21 0  1MEG                          ;ADDED RESISTOR
  EOUT 21 0 POLY(1) (20,5) .2 1          ;ADDED COMPLEMENTARY OUTPUT
  Q1    9  2  7 QIN
  Q2    8  1  7 QIN
  Q3    9  8  3 QMO
  Q4    8  8  3 QMI
.MODEL QIN NPN(IS=800.0E-18 BF=10)
.MODEL QMI PNP(IS=800.0E-18 BF=1002)
.MODEL QMO PNP(IS=800.0E-18 BF=1000 CJC=1E-15 TR=6.211E-9)
  E1   10  6  3  9  1
  V1   10 11 DC 0
  Q5    5 11  6 QOC
.MODEL QOC NPN(IS=800.0E-18 BF=53.30E3 CJC=1E-15 TF=154.3E-15 TR=4.192E-9)
  DP    4  3 DX
  RP    3  4 2.041E3
  RP1 3  6 167                            ;ADDED POWER RESISTOR
.MODEL DX  D(IS=800.0E-18)
*
.ENDS
* LM111 VOLTAGE COMPARATOR "MACROMODEL" SUBCIRCUIT
* CREATED USING PARTS VERSION 4.03 ON 03/07/90 AT 12:28
* REV (N/A)
* CONNECTIONS:   NON-INVERTING INPUT
*                | INVERTING INPUT
*                | | POSITIVE POWER SUPPLY
*                | | | NEGATIVE POWER SUPPLY
*                | | | | OPEN COLLECTOR OUTPUT
*                | | | | | OUTPUT GROUND
*                | | | | | |
.SUBCKT LM111_TI    1 2 3 4 5 6
*
  F1    9  3 V1 1
  IEE   3  7 DC 100.0E-6
  VI1  21  1 DC .45
  VI2  22  2 DC .45
  Q1    9 21  7 QIN
  Q2    8 22  7 QIN
  Q3    9  8  4 QMO
  Q4    8  8  4 QMI
.MODEL QIN PNP(IS=800.0E-18 BF=666.7)
.MODEL QMI NPN(IS=800.0E-18 BF=1002)
.MODEL QMO NPN(IS=800.0E-18 BF=1000 CJC=1E-15 TR=102.5E-9)
  E1   10  6  9  4  1
  V1   10 11 DC 0
  Q5    5 11  6 QOC
.MODEL QOC NPN(IS=800.0E-18 BF=103.5E3 CJC=1E-15 TF=11.60E-12 TR=48.19E-9)
  DP    4  3 DX
  RP    3  4 6.667E3
.MODEL DX  D(IS=800.0E-18)
*
.ENDS
* LM211 VOLTAGE COMPARATOR "MACROMODEL" SUBCIRCUIT
* CREATED USING PARTS VERSION 4.03 ON 03/07/90 AT 12:28
* REV (N/A)
* CONNECTIONS:   NON-INVERTING INPUT
*                | INVERTING INPUT
*                | | POSITIVE POWER SUPPLY
*                | | | NEGATIVE POWER SUPPLY
*                | | | | OPEN COLLECTOR OUTPUT
*                | | | | | OUTPUT GROUND
*                | | | | | |
.SUBCKT LM211_TI    1 2 3 4 5 6
*
  F1    9  3 V1 1
  IEE   3  7 DC 100.0E-6
  VI1  21  1 DC .45
  VI2  22  2 DC .45
  Q1    9 21  7 QIN
  Q2    8 22  7 QIN
  Q3    9  8  4 QMO
  Q4    8  8  4 QMI
.MODEL QIN PNP(IS=800.0E-18 BF=666.7)
.MODEL QMI NPN(IS=800.0E-18 BF=1002)
.MODEL QMO NPN(IS=800.0E-18 BF=1000 CJC=1E-15 TR=102.5E-9)
  E1   10  6  9  4  1
  V1   10 11 DC 0
  Q5    5 11  6 QOC
.MODEL QOC NPN(IS=800.0E-18 BF=103.5E3 CJC=1E-15 TF=11.60E-12 TR=48.19E-9)
  DP    4  3 DX
  RP    3  4 6.667E3
.MODEL DX  D(IS=800.0E-18)
*
.ENDS
* LM311 VOLTAGE COMPARATOR "MACROMODEL" SUBCIRCUIT
* CREATED USING PARTS VERSION 4.03 ON 03/07/90 AT 08:15
* REV (N/A)
* CONNECTIONS:   NON-INVERTING INPUT
*                | INVERTING INPUT
*                | | POSITIVE POWER SUPPLY
*                | | | NEGATIVE POWER SUPPLY
*                | | | | OPEN COLLECTOR OUTPUT
*                | | | | | OUTPUT GROUND
*                | | | | | |
.SUBCKT LM311_TI    1 2 3 4 5 6
*
  F1    9  3 V1 1
  IEE   3  7 DC 100.0E-6
  VI1  21  1 DC .45
  VI2  22  2 DC .45
  Q1    9 21  7 QIN
  Q2    8 22  7 QIN
  Q3    9  8  4 QMO
  Q4    8  8  4 QMI
.MODEL QIN PNP(IS=800.0E-18 BF=500)
.MODEL QMI NPN(IS=800.0E-18 BF=1002)
.MODEL QMO NPN(IS=800.0E-18 BF=1000 CJC=1E-15 TR=102.5E-9)
  E1   10  6  9  4  1
  V1   10 11 DC 0
  Q5    5 11  6 QOC
.MODEL QOC NPN(IS=800.0E-18 BF=103.5E3 CJC=1E-15 TF=11.60E-12 TR=48.19E-9)
  DP    4  3 DX
  RP    3  4 6.667E3
.MODEL DX  D(IS=800.0E-18)
*
.ENDS
* LT1011 VOLTAGE COMPARATOR "MACROMODEL" SUBCIRCUIT
* CREATED USING PARTS VERSION 4.03 ON 03/09/90 AT 15:23
* REV (N/A)
* CONNECTIONS:   NON-INVERTING INPUT
*                | INVERTING INPUT