******
*SRC=TLE2425;TLE2425;Voltage Ref.;Texas Inst.;2.5 V virtual ground generator
*SYM=TIVG1
* TLE2425 OPERATIONAL AMPLIFIER "MACROMODEL" SUBCIRCUIT
* REV (N/A)      SUPPLY VOLTAGE: 5V
* CONNECTIONS:   INPUT
*                | COMMON
*                | | OUTPUT
*                | | |
.SUBCKT TLE2425  3 4 5
*OPAMP SECTION
C1   11 12 21.66E-12
C2    6  7 30.00E-12
DC    5 53 DX
DE   54  5 DX
DLP  90 91 DX
DLN  92 90 DX
DP    4  3 DX
EGND 99  0 POLY(2)  3 0   4 0  0 .5 .5
FB 7 99 POLY(5) VB VC VE VLP VLN 0 74.8E6 -10E6 10E6 10E6 -10E6
GA    6  0 11 12 320.4E-6
GCM   0  6 10 99 1.013E-9
HLIM 90  0 VLIM 1K
IEE   3 10 DC 24.05E-6
Q1   11  2 13 QX
Q2   12  1 14 QX
R2    6  9 100.0E3
RC1 4 11 3.121E3
RC2 4 12 3.121E3
RE1 13 10 963.4
RE2 14 10 963.4
REE  10 99 8.316E6
RO1   8  5 63
RO2   7 99 62
RP  3 4 34.25E3
VB    9  0 DC 0
VC    3 53 DC 1.400
VE   54  4 DC 1.400
VLIM  7  8 DC 0
VLP  91  0 DC 30
VLN 0 92 DC 30
RFB 5 2 1K
RIN 30 1 1K
RCOM 34 4 .1
*REGULATOR SECTION
RG1 30 0 20MEG
RG2 30 31 .2
RG3 31 35 400K
RG4 35 34 411K
RG5 31 36 25MEG
HREG 31 32 POLY(2) VPSET VNSET 0 1E2 1E2
VREG 32 33 DC 0V
EREG 33 34 POLY(1)  36 34  1.23 1
VADJ 36 34 1.27V
HPSET 37 0 VREG 1.030E3
VPSET 38 0 DC 20V
HNSET 39 0 VREG 6.11E5
VNSET 40 0 DC -20V
DSUB 4 34 DX
DPOS 37 38  DX
DNNEG 40 39  DX
.MODEL DX D(IS=800.0E-18)
.MODEL QX PNP(IS=800.0E-18 BF=480)
.ENDS
*******
*SRC=TLE2425A;TLE2425A;Voltage Ref.;Texas Inst.;2.5 V virtual ground generator
*SYM=TIVG1
* TLE2425 OPERATIONAL AMPLIFIER "MACROMODEL" SUBCIRCUIT
* REV (N/A)      SUPPLY VOLTAGE: 5V
* CONNECTIONS:   INPUT
*                | COMMON
*                | | OUTPUT
*                | | |
.SUBCKT TLE2425A 3 4 5
*OPAMP SECTION
C1   11 12 21.66E-12
C2    6  7 30.00E-12
C3  87 0 10.64E-9
CPSR 85 86 15.9E-9
DCM+ 81 82 DX
DCM- 83 81 DX
DC    5 53 DX
DE   54  5 DX
DLP  90 91 DX
DLN  92 90 DX
DP    4  3 DX
ECMR 84 99  2 99  1
EGND 99  0 POLY(2)  3 0   4 0  0 .5 .5
EPSR 85 0 POLY(1)  3 4  -16.22E-6  3.24E-6
ENSE 89 2 POLY(1)  88 0  120E-6  1
FB 7 99 POLY(6) VB VC VE VLP VLN VPSR 0 74.8E6 -10E6 10E6 10E6 -10E6 74E6
GA    6  0 11 12 320.4E-6
GCM   0  6 10 99 1.013E-9
GPSR 85 86  85 86  100E-6
GRC1 4 11  4 11  3.204E-4
GRC2 4 12  4 12  3.204E-4
GRE1 13 10  13 10  1.038E-3
GRE2 14 10  14 10  1.038E-3
HLIM 90  0 VLIM 1K
HCMR 80 1 POLY(2) VCM+ VCM- 0 1E2 1E2
IRP 3 4 146E-6
IEE   3 10 DC 24.05E-6
IIO 2 0 .2E-9
I1 88 0 1E-21
Q1   11  89 13 QX
Q2   12  80 14 QX
R2    6  9 100.0E3
RCM 84 81 1K
REE  10 99 8.316E6
RN1 87 0 2.55E8
RN2 87 88 11.67E3
RO1   8  5 63
RO2   7 99 62
VCM+ 82 99 1.0
VCM- 83 99 -2.3
VB    9  0 DC 0
VC    3 53 DC 1.400
VE   54  4 DC 1.400
VLIM  7  8 DC 0
VLP  91  0 DC 30
VLN 0 92 DC 30
VPSR 0 86 DC 0
RFB 5 2 1K
RIN 30 1 1K
RCOM 34 4 .1
*REGULATOR SECTION
RG1 30 0 20MEG
RG2 30 31 .2
RG3 31 35 400K
RG4 35 34 411K
RG5 31 36 25MEG
HREG 31 32 POLY(2) VPSET VNSET 0 1E2 1E2
VREG 32 33 DC 0V
EREG 33 34 POLY (1) 36 34  1.23 1
VADJ 36 34 1.27V
HPSET 37 0 VREG 1.030E3
VPSET 38 0 DC 20V
HNSET 39 0 VREG 6.11E5
VNSET 40 0 DC -20V
DSUB 4 34 DX
DPOS 37 38  DX
DNNEG 40 39  DX
.MODEL DX D(IS=800.0E-18)
.MODEL QX PNP(IS=800.0E-18 BF=480)
.ENDS
******
*SRC=TLE2426;TLE2426;Voltage Ref.;Texas Inst.;Rail-splitter virtual ground
*SYM=TIVG2
* TLE2426 OPERATIONAL AMPLIFIER "MACROMODEL" SUBCIRCUIT
* REV (N/A)      SUPPLY VOLTAGE: 5V
* CONNECTIONS:   FILTER
*                | INPUT
*                | | COMMON
*                | | | OUTPUT
*                | | | |
.SUBCKT TLE2426  1 3 4 5
C1   11 12 21.66E-12
C2    6  7 30.00E-12
DC    5 53 DX
DE   54  5 DX
DLP  90 91 DX
DLN  92 90 DX
DP    4  3 DX
EGND 99  0 POLY(2)  3 0   4 0  0 .5 .5
FB 7 99 POLY(5) VB VC VE VLP VLN 0 74.8E6 -10E6 10E6 10E6 -10E6
GA    6  0 11 12 320.4E-6
GCM   0  6 10 99 1.013E-9
HLIM 90  0 VLIM 1K
IEE   3 10 DC 24.05E-6
Q1   11  2 13 QX
Q2   12  1 14 QX
R2    6  9 100.0E3
RC1 4 11 3.121E3
RC2 4 12 3.121E3
RE1 13 10 963.4
RE2 14 10 963.4
REE  10 99 8.316E6
RO1   8  5 63
RO2   7 99 62
RP  3 4 34.25E3
VB    9  0 DC 0
VC    3 53 DC 1.400
VE   54  4 DC 1.400
VLIM  7  8 DC 0
VLP  91  0 DC 30
VLN 0 92 DC 30
RFB 5 2 1K
RIN1 3 1 400K
RIN2 1 4 411K
.MODEL DX D(IS=800.0E-18)
.MODEL QX PNP(IS=800.0E-18 BF=480)
.ENDS
******
*SRC=TLE2426A;TLE2426A;Voltage Ref.;Texas Inst.;Rail-splitter virtual ground
*SYM=TIVG2
* TLE2426 OPERATIONAL AMPLIFIER "MACROMODEL" SUBCIRCUIT
* REV (N/A)      SUPPLY VOLTAGE: 5V
* CONNECTIONS:   FILTER
*                | INPUT
*                | | COMMON
*                | | | OUTPUT
*                | | | |
.SUBCKT TLE2426A 1 3 4 5
C1   11 12 21.66E-12
C2    6  7 30.00E-12
C3  87 0 10.64E-9
CPSR 85 86 15.9E-9
DCM+ 81 82 DX
DCM- 83 81 DX
DC    5 53 DX
DE   54  5 DX
DLP  90 91 DX
DLN  92 90 DX
DP    4  3 DX
ECMR 84 99  2 99  1
EGND 99  0 POLY(2)  3 0   4 0  0 .5 .5
EPSR 85 0 POLY(1)  3 4  -16.22E-6  3.24E-6
ENSE 89 2 POLY(1)  88 0  120E-6  1
FB 7 99 POLY(6) VB VC VE VLP VLN VPSR 0 74.8E6 -10E6 10E6 10E6 -10E6 74E6
GA    6  0 11 12 320.4E-6
GCM   0  6 10 99 1.013E-9
GPSR 85 86  85 86  100E-6
GRC1 4 11  4 11  3.204E-4
GRC2 4 12  4 12  3.204E-4
GRE1 13 10  13 10  1.038E-3
GRE2 14 10  14 10  1.038E-3
HLIM 90  0 VLIM 1K
HCMR 80 1 POLY(2) VCM+ VCM- 0 1E2 1E2
IRP 3 4 146E-6
IEE   3 10 DC 24.05E-6
IIO 2 0 .2E-9
I1 88 0 1E-21
Q1   11  89 13 QX
Q2   12  80 14 QX
R2    6  9 100.0E3
RCM 84 81 1K
REE  10 99 8.316E6
RN1 87 0 2.55E8
RN2 87 88 11.67E3
RO1   8  5 63
RO2   7 99 62
VCM+ 82 99 1.0
VCM- 83 99 -2.3
VB    9  0 DC 0
VC    3 53 DC 1.400
VE   54  4 DC 1.400
VLIM  7  8 DC 0
VLP  91  0 DC 30
VLN 0 92 DC 30
VPSR 0 86 DC 0
RFB 5 2 1K
RIN1 3 1 400K
RIN2 1 4 411K
.MODEL DX D(IS=800.0E-18)
.MODEL QX PNP(IS=800.0E-18 BF=480)
.ENDS
******
*SRC=TLV2322IA;T2322IA;Opamps;TI-"TLVxxx";Supply Voltage = 3V
*SYM=TIOPAMP
* TLV2322I OPERATIONAL AMPLIFIER "MACROMODEL" SUBCIRCUIT
* REV (N/A)
* Supply Voltage = 3V
* CONNECTIONS:   NON-INVERTING INPUT
*                | INVERTING INPUT
*                | | POSITIVE POWER SUPPLY
*                | | | NEGATIVE POWER SUPPLY
*                | | | | OUTPUT
*                | | | | |
.SUBCKT T2322IA  1 2 3 4 5
*
C1   11 12 7.413E-12
C2    6  7 10.00E-12
DC    5 53 DX
DE   54  5 DX
DLP  90 91 DX
DLN  92 90 DX
DP    4  3 DX
EGND 99  0 POLY(2)  3 0   4 0  0 .5 .5
FB 7 99 POLY(5) VB VC VE VLP VLN 0 3.283E9 -4E9 4E9 4E9 -4E9
GA    6  0 11 12 1.696E-6
GCM 0  6 10 99 135.1E-12
ISS   3 10 DC 200.0E-9
HLIM 90  0 VLIM 1K
J1   11  2 10 JX
J2   12  1 10 JX
R2    6  9 100.0E3
RD1 60 11 589.5E3
RD2 60 12 589.5E3
RO1   8  5 50
RO2   7 99 50
RP	3  4 500E3
RSS  10 99 1.000E9
VAD  60  4  -.5
VB    9  0 DC 0
VC 3 53 DC 1.600
VE   54  4 DC .6
VLIM  7  8 DC 0
VLP  91  0 DC 30
VLN   0 92 DC 30
.MODEL DX D(IS=800.0E-18)
.MODEL JX PJF(IS=300.0E-15 BETA=28.78E-6 VTO=.001)
.ENDS
******
*SRC=TLV2322IB;T2322IB;Opamps;TI-"TLVxxx";Supply Voltage = 5V
*SYM=TIOPAMP
* TLV2322I OPERATIONAL AMPLIFIER "MACROMODEL" SUBCIRCUIT
* REV (N/A)
* Supply Voltage = 5V
* CONNECTIONS:   NON-INVERTING INPUT
*                | INVERTING INPUT
*                | | POSITIVE POWER SUPPLY
*                | | | NEGATIVE POWER SUPPLY
*                | | | | OUTPUT
*                | | | | |
.SUBCKT T2322IB  1 2 3 4 5
*
C1   11 12 6.413E-12
C2    6  7 10.00E-12
DC    5 53 DX
DE   54  5 DX
DLP  90 91 DX
DLN  92 90 DX
DP    4  3 DX
EGND 99  0 POLY(2)  3 0   4 0  0 .5 .5
FB 7 99 POLY(5) VB VC VE VLP VLN 0 1.265E9 -2E9 2E9 2E9 -2E9
GA    6  0 11 12 4.964E-6
GCM 0  6 10 99 198.04E-12
ISS   3 10 DC 300.0E-9
HLIM 90  0 VLIM 1K
J1   11  2 10 JX
J2   12  1 10 JX
R2    6  9 100.0E3
RD1 60 11 201.5E3
RD2 60 12 201.5E3
RO1   8  5 50
RO2   7 99 50
RP    3  4 500.0E3
RSS  10 99 666.7E6
VAD  60  4  -.3
VB    9  0 DC 0
VC 3 53 DC 1.700
VE   54  4 DC .600
VLIM  7  8 DC 0
VLP  91  0 DC 30
VLN   0 92 DC 30
.MODEL DX D(IS=800.0E-18)
.MODEL JX PJF(IS=300.0E-15 BETA=164.3E-6 VTO=.036)
.ENDS
******
*SRC=TLV2324IA;T2324IA;Opamps;TI-"TLVxxx";Supply Voltage = 3V
*SYM=TIOPAMP
* TLV2324I OPERATIONAL AMPLIFIER "MACROMODEL" SUBCIRCUIT
* REV (N/A)
* Supply Voltage = 3V
* CONNECTIONS:   NON-INVERTING INPUT
*                | INVERTING INPUT
*                | | POSITIVE POWER SUPPLY
*                | | | NEGATIVE POWER SUPPLY
*                | | | | OUTPUT
*                | | | | |
.SUBCKT T2324IA  1 2 3 4 5
*
C1   11 12 7.413E-12
C2    6  7 10.00E-12
DC    5 53 DX
DE   54  5 DX
DLP  90 91 DX
DLN  92 90 DX
DP    4  3 DX
EGND 99  0 POLY(2) 3 0   4 0  0 .5 .5
FB 7 99 POLY(5) VB VC VE VLP VLN 0 3.283E9 -4E9 4E9 4E9 -4E9
GA    6  0 11 12 1.696E-6
GCM 0  6 10 99 135.1E-12
ISS   3 10 DC 200.0E-9
HLIM 90  0 VLIM 1K
J1   11  2 10 JX
J2   12  1 10 JX
R2    6  9 100.0E3
RD1 60 11 589.5E3
RD2 60 12 589.5E3
RO1   8  5 50
RO2   7 99 50
RP	3  4 500E3
RSS  10 99 1.000E9
VAD  60  4  -.5
VB    9  0 DC 0
VC 3 53 DC 1.600
VE   54  4 DC .6
VLIM  7  8 DC 0
VLP  91  0 DC 30
VLN   0 92 DC 30
.MODEL DX D(IS=800.0E-18)
.MODEL JX PJF(IS=300.0E-15 BETA=28.78E-6 VTO=.001)
.ENDS
******
*SRC=TLV2324IB;T2324IB;Opamps;TI-"TLVxxx";Supply Voltage = 5V
*SYM=TIOPAMP
* TLV2324I OPERATIONAL AMPLIFIER "MACROMODEL" SUBCIRCUIT
* REV (N/A)
* Supply Voltage = 5V
* CONNECTIONS:   NON-INVERTING INPUT
*                | INVERTING INPUT
*                | | POSITIVE POWER SUPPLY
*                | | | NEGATIVE POWER SUPPLY
*                | | | | OUTPUT
*                | | | | |
.SUBCKT T2324IB  1 2 3 4 5
*
C1   11 12 6.413E-12
C2    6  7 10.00E-12
DC    5 53 DX
DE   54  5 DX
DLP  90 91 DX
DLN  92 90 DX
DP    4  3 DX
EGND 99  0 POLY(2)  3 0   4 0  0 .5 .5
FB 7 99 POLY(5) VB VC VE VLP VLN 0 1.265E9 -2E9 2E9 2E9 -2E9
GA    6  0 11 12 4.964E-6
GCM 0  6 10 99 198.04E-12
ISS   3 10 DC 300.0E-9
HLIM 90  0 VLIM 1K
J1   11  2 10 JX
J2   12  1 10 JX
R2    6  9 100.0E3
RD1 60 11 201.5E3
RD2 60 12 201.5E3
RO1   8  5 50
RO2   7 99 50
RP    3  4 500.0E3
RSS  10 99 666.7E6
VAD  60  4  -.3
VB    9  0 DC 0
VC 3 53 DC 1.700
VE   54  4 DC .600
VLIM  7  8 DC 0
VLP  91  0 DC 30
VLN   0 92 DC 30
.MODEL DX D(IS=800.0E-18)
.MODEL JX PJF(IS=300.0E-15 BETA=164.3E-6 VTO=.036)
.ENDS
******
*SRC=TLV2332IA;T2332IA;Opamps;TI-"TLVxxx";Supply Voltage = 3V
*SYM=TIOPAMP
* TLV2332I OPERATIONAL AMPLIFIER "MACROMODEL" SUBCIRCUIT
* REV (N/A)
* Supply Voltage = 3V
* CONNECTIONS:   NON-INVERTING INPUT
*                | INVERTING INPUT
*                | | POSITIVE POWER SUPPLY
*                | | | NEGATIVE POWER SUPPLY
*                | | | | OUTPUT
*                | | | | |
.SUBCKT T2332IA  1 2 3 4 5
*
C1   11 12 5.174E-12
C2    6  7 10.00E-12
DC    5 53 DX
DE   54  5 DX
DLP  90 91 DX
DLN  92 90 DX
DP    4  3 DX
EGND 99  0 POLY(2)  3 0   4 0  0 .5 .5
FB 7 99 POLY(5) VB VC VE VLP VLN 0 51.07E6 -90E6 90E6 90E6 -90E6
GA    6  0 11 12 15.71E-6
GCM 0  6 10 99 788.6E-12
ISS   3 10 DC 3.800E-6
HLIM 90  0 VLIM 1K
J1   11  2 10 JX
J2   12  1 10 JX
R2    6  9 100.0E3
RD1 60 11 63.66E3
RD2 60 12 63.66E3
RO1   8  5 50
RO2   7 99 50
RP    3  4 37.50E3
RSS  10 99 52.63E6
VAD  60  4  -.5
VB    9  0 DC 0
VC 3 53 DC 1.66
VE   54  4 DC .66
VLIM  7  8 DC 0
VLP  91  0 DC 30
VLN   0 92 DC 30
.MODEL DX D(IS=800.0E-18)
.MODEL JX PJF(IS=300.0E-15 BETA=129.9E-6 VTO=-.061)
.ENDS
******
*SRC=TLV2332IB;T2332IB;Opamps;TI-"TLVxxx";Supply Voltage = 5V
*SYM=TIOPAMP
* TLV2332I OPERATIONAL AMPLIFIER "MACROMODEL" SUBCIRCUIT
* REV (N/A)      Supply Voltage: 5V
* CONNECTIONS:   NON-INVERTING INPUT
*                | INVERTING INPUT
*                | | POSITIVE POWER SUPPLY
*                | | | NEGATIVE POWER SUPPLY
*                | | | | OUTPUT
*                | | | | |
.SUBCKT T2332IB  1 2 3 4 5
*
C1   11 12 8.92E-12
C2    6  7 20.00E-12
DC    5 53 DX
DE   54  5 DX
DLP  90 91 DX
DLN  92 90 DX
DP    4  3 DX
EGND 99  0 POLY(2)  3 0   4 0  0 .5 .5
FB 7 99 POLY(5) VB VC VE VLP VLN 0 21.49E6 -30E6 30E6 30E6 -30E6
GA    6  0 11 12 52.78E-6
GCM 0  6 10 99 3.036E-9
HLIM 90  0 VLIM 1K
ISS   3 10 DC 8.000E-6
J1   11  2 10 JX
J2   12  1 10 JX
R2    6  9 100.0E3
RD1  60 11 18.95E3
RD2  60 12 18.95E3
RO1   8  5 75
RO2   7 99 75
RP  3 4 51.55E3
RSS  10 99 25.00E6
VAD 60 4 -.5
VB    9  0 DC 0
VC 3 53 DC 1.69
VE   54  4 DC .59
VLIM  7  8 DC 0
VLP  91  0 DC 25
VLN   0 92 DC 25
.MODEL DX D(IS=800.0E-18)
.MODEL JX PJF(IS=300.0E-15 BETA=696.4E-6 VTO=-.0175)
.ENDS
******
*SRC=TLV2334IA;T2334IA;Opamps;TI-"TLVxxx";Supply Voltage = 3V
*SYM=TIOPAMP
* TLV2334I OPERATIONAL AMPLIFIER "MACROMODEL" SUBCIRCUIT
* REV (N/A)
* Supply Voltage = 3V
* CONNECTIONS:   NON-INVERTING INPUT
*                | INVERTING INPUT
*                | | POSITIVE POWER SUPPLY
*                | | | NEGATIVE POWER SUPPLY
*                | | | | OUTPUT
*                | | | | |
.SUBCKT T2334IA  1 2 3 4 5
*
C1   11 12 5.174E-12
C2    6  7 10.00E-12
DC    5 53 DX
DE   54  5 DX
DLP  90 91 DX
DLN  92 90 DX
DP    4  3 DX
EGND 99  0 POLY(2)  3 0   4 0  0 .5 .5
FB 7 99 POLY(5) VB VC VE VLP VLN 0 51.07E6 -90E6 90E6 90E6 -90E6
GA    6  0 11 12 15.71E-6
GCM 0  6 10 99 788.6E-12
ISS   3 10 DC 3.800E-6
HLIM 90  0 VLIM 1K
J1   11  2 10 JX
J2   12  1 10 JX
R2    6  9 100.0E3
RD1 60 11 63.66E3
RD2 60 12 63.66E3
RO1   8  5 50
RO2   7 99 50
RP    3  4 37.50E3
RSS  10 99 52.63E6
VAD  60  4  -.5
VB    9  0 DC 0
VC 3 53 DC 1.66
VE   54  4 DC .66
VLIM  7  8 DC 0
VLP  91  0 DC 30
VLN   0 92 DC 30
.MODEL DX D(IS=800.0E-18)
.MODEL JX PJF(IS=300.0E-15 BETA=129.9E-6 VTO=-.061)
.ENDS
******
*SRC=TLV2334IB;T2334IB;Opamps;TI-"TLVxxx";Supply Voltage = 5V
*SYM=TIOPAMP
* TLV2334I OPERATIONAL AMPLIFIER "MACROMODEL" SUBCIRCUIT
* REV (N/A)      Supply Voltage: 5V
* CONNECTIONS:   NON-INVERTING INPUT
*                | INVERTING INPUT
*                | | POSITIVE POWER SUPPLY
*                | | | NEGATIVE POWER SUPPLY
*                | | | | OUTPUT
*                | | | | |
.SUBCKT T2334IB  1 2 3 4 5
*
C1   11 12 8.92E-12
C2    6  7 20.00E-12
DC    5 53 DX
DE   54  5 DX
DLP  90 91 DX
DLN  92 90 DX
DP    4  3 DX
EGND 99  0 POLY(2)  3 0   4 0  0 .5 .5
FB 7 99 POLY(5) VB VC VE VLP VLN 0 21.49E6 -30E6 30E6 30E6 -30E6
GA    6  0 11 12 52.78E-6
GCM 0  6 10 99 3.036E-9
HLIM 90  0 VLIM 1K
ISS   3 10 DC 8.000E-6
J1   11  2 10 JX
J2   12  1 10 JX
R2    6  9 100.0E3
RD1  60 11 18.95E3
RD2  60 12 18.95E3
RO1   8  5 75
RO2   7 99 75
RP  3 4 51.55E3
RSS  10 99 25.00E6
VAD 60 4 -.5
VB    9  0 DC 0
VC 3 53 DC 1.69
VE   54  4 DC .59
VLIM  7  8 DC 0
VLP  91  0 DC 25
VLN   0 92 DC 25
.MODEL DX D(IS=800.0E-18)
.MODEL JX PJF(IS=300.0E-15 BETA=696.4E-6 VTO=-.0175)
.ENDS
******
*SRC=TLV2341HA;T2341HA;Opamps;TI-"TLVxxx";Supply Voltage = 3V
*SYM=TIOPAMP
* TLV2341H OPERATIONAL AMPLIFIER "MACROMODEL" SUBCIRCUIT
* REV (N/A)
* Supply Voltage = 3V
* CONNECTIONS:   NON-INVERTING INPUT
*                | INVERTING INPUT
*                | | POSITIVE POWER SUPPLY
*                | | | NEGATIVE POWER SUPPLY
*                | | | | OUTPUT
*                | | | | |
.SUBCKT T2341HA  1 2 3 4 5
*
C1   11 12 2.646E-12
C2    6  7 10.00E-12
DC    5 53 DX
DE   54  5 DX
DLP  90 91 DX
DLN  92 90 DX
DP    4  3 DX
EGND 99  0 POLY(2)  3 0   4 0  0 .5 .5
FB 7 99 POLY(5) VB VC VE VLP VLN 0 3.532E6 -4E6 4E6 4E6 -4E6
GA    6  0 11 12 31.42E-6
GCM 0  6 10 99 7.915E-9
ISS   3 10 DC 21.00E-6
HLIM 90  0 VLIM 1K
J1   11  2 10 JX
J2   12  1 10 JX
R2    6  9 100.0E3
RD1 60 11 31.83E3
RD2 60 12 31.83E3
RO1   8  5 50
RO2   7 99 50
RP 3  4 10E3
RSS  10 99 9.524E6
VAD  60  4  -.9
VB    9  0 DC 0
VC 3 53 DC 1.7
VE   54  4 DC .7
VLIM  7  8 DC 0
VLP  91  0 DC 30
VLN   0 92 DC 30
.MODEL DX D(IS=800.0E-18)
.MODEL JX PJF(IS=300.0E-15 BETA=94.00E-6 VTO=-.273)
.ENDS
******
*SRC=TLV2341HB;T2341HB;Opamps;TI-"TLVxxx";Supply Voltage = 5V
*SYM=TIOPAMP
* TLV2341 HIGH BIAS OPERATIONAL AMPLIFIER "MACROMODEL" SUBCIRCUIT
* REV (N/A)      Supply Voltage: 5V
* CONNECTIONS:   NON-INVERTING INPUT
*                | INVERTING INPUT
*                | | POSITIVE POWER SUPPLY
*                | | | NEGATIVE POWER SUPPLY
*                | | | | OUTPUT
*                | | | | |
.SUBCKT T2341HB  1 2 3 4 5
*
C1   11 12 5.657E-12
C2    6  7 20.00E-12
DC 5 53 DX
DE   54  5 DX
DLP  90 91 DX
DLN  92 90 DX
DP    4  3 DX
EGND 99  0 POLY(2)  3 0   4 0  0 .5 .5
FB 7 99 POLY(5) VB VC VE VLP VLN 0 1.120E6 -1E6 1E6 1E6 -1E6
GA    6  0 11 12 138.2E-6
GCM 0  6 10 99 28.46E-9
HLIM 90  0 VLIM 1K
ISS   3 10 DC 58.00E-6
J1   11  2 10 JX
J2   12  1 10 JX
R2    6  9 100.0E3
RD1  60 11 7.236E3
RD2  60 12 7.236E3
RO1   8  5 75
RO2   7 99 75
RP  3 4 8.1E3
RSS  10 99 3.448E6
VAD 60 4 -.7
VB    9  0 DC 0
VC 3 53 DC 1.85
VE   54  4 DC .7
VLIM  7  8 DC 0
VLP  91  0 DC 25
VLN   0 92 DC 25
.MODEL DX D(IS=800.0E-18)
.MODEL JX PJF(IS=300.0E-15 BETA=658.9E-6 VTO=-.151)
.ENDS
******
*SRC=TLV2341LA;T2341LA;Opamps;TI-"TLVxxx";Supply Voltage = 3V
*SYM=TIOPAMP
* TLV2341 LOW BIAS OPERATIONAL AMPLIFIER "MACROMODEL" SUBCIRCUIT
* REV (N/A)
* Supply Voltage = 3V
* CONNECTIONS:   NON-INVERTING INPUT
*                | INVERTING INPUT
*                | | POSITIVE POWER SUPPLY
*                | | | NEGATIVE POWER SUPPLY
*                | | | | OUTPUT
*                | | | | |
.SUBCKT T2341LA  1 2 3 4 5
*
C1   11 12 7.413E-12
C2    6  7 10.00E-12
DC    5 53 DX
DE   54  5 DX
DLP  90 91 DX
DLN  92 90 DX
DP    4  3 DX
EGND 99  0 POLY(2)  3 0   4 0  0 .5 .5
FB 7 99 POLY(5) VB VC VE VLP VLN 0 3.283E9 -4E9 4E9 4E9 -4E9
GA    6  0 11 12 1.696E-6
GCM 0  6 10 99 135.1E-12
ISS   3 10 DC 200.0E-9
HLIM 90  0 VLIM 1K
J1   11  2 10 JX
J2   12  1 10 JX
R2    6  9 100.0E3
RD1 60 11 589.5E3
RD2 60 12 589.5E3
RO1   8  5 50
RO2   7 99 50
RP	3  4 500E3
RSS  10 99 1.000E9
VAD  60  4  -.5
VB    9  0 DC 0
VC 3 53 DC 1.600
VE   54  4 DC .6
VLIM  7  8 DC 0
VLP  91  0 DC 30
VLN   0 92 DC 30
.MODEL DX D(IS=800.0E-18)
.MODEL JX PJF(IS=300.0E-15 BETA=28.78E-6 VTO=.001)
.ENDS
******
*SRC=TLV2341LB;T2341LB;Opamps;TI-"TLVxxx";Supply Voltage = 5V
*SYM=TIOPAMP
* TLV2341 LOW BIAS OPERATIONAL AMPLIFIER "MACROMODEL" SUBCIRCUIT
* REV (N/A)
* Supply Voltage = 5V
* CONNECTIONS:   NON-INVERTING INPUT
*                | INVERTING INPUT
*                | | POSITIVE POWER SUPPLY
*                | | | NEGATIVE POWER SUPPLY
*                | | | | OUTPUT
*                | | | | |
.SUBCKT T2341LB  1 2 3 4 5
*
C1   11 12 6.413E-12
C2    6  7 10.00E-12
DC    5 53 DX
DE   54  5 DX
DLP  90 91 DX
DLN  92 90 DX
DP    4  3 DX
EGND 99  0 POLY(2)  3 0   4 0  0 .5 .5
FB 7 99 POLY(5) VB VC VE VLP VLN 0 1.266E9 -2E9 2E9 2E9 -2E9
GA    6  0 11 12 4.964E-6
GCM 0  6 10 99 198E-12
ISS   3 10 DC 300.0E-9
HLIM 90  0 VLIM 1K
J1   11  2 10 JX
J2   12  1 10 JX
R2    6  9 100.0E3
RD1 60 11 201.5E3
RD2 60 12 201.5E3
RO1   8  5 50
RO2   7 99 50
RP    3  4 500.0E3
RSS  10 99 666.7E6
VAD  60  4  -.5
VB    9  0 DC 0
VC 3 53 DC 1.700
VE   54  4 DC .6
VLIM  7  8 DC 0
VLP  91  0 DC 30
VLN   0 92 DC 30
.MODEL DX D(IS=800.0E-18)
.MODEL JX PJF(IS=300.0E-15 BETA=164.3E-6 VTO=.037)
.ENDS
******
*SRC=TLV2341MA;T2341MA;Opamps;TI-"TLVxxx";Supply Voltage = 3V
*SYM=TIOPAMP
* TLV2341M OPERATIONAL AMPLIFIER "MACROMODEL" SUBCIRCUIT
* REV (N/A)
* Supply Voltage = 3V
* CONNECTIONS:   NON-INVERTING INPUT
*                | INVERTING INPUT
*                | | POSITIVE POWER SUPPLY
*                | | | NEGATIVE POWER SUPPLY
*                | | | | OUTPUT
*                | | | | |
.SUBCKT T2341MA  1 2 3 4 5
*
C1   11 12 5.174E-12
C2    6  7 10.00E-12
DC    5 53 DX
DE   54  5 DX
DLP  90 91 DX
DLN  92 90 DX
DP    4  3 DX
EGND 99  0 POLY(2)  3 0   4 0  0 .5 .5
FB 7 99 POLY(5) VB VC VE VLP VLN 0 51.07E6 -90E6 90E6 90E6 -90E6
GA    6  0 11 12 15.71E-6
GCM 0  6 10 99 788.6E-12
ISS   3 10 DC 3.800E-6
HLIM 90  0 VLIM 1K
J1   11  2 10 JX
J2   12  1 10 JX
R2    6  9 100.0E3
RD1 60 11 63.66E3
RD2 60 12 63.66E3
RO1   8  5 50
RO2   7 99 50
RP 3  4 49.2E3
RSS  10 99 52.63E6
VAD  60  4  -.5
VB    9  0 DC 0
VC 3 53 DC 1.66
VE   54  4 DC .66
VLIM  7  8 DC 0
VLP  91  0 DC 30
VLN   0 92 DC 30
.MODEL DX D(IS=800.0E-18)
.MODEL JX PJF(IS=300.0E-15 BETA=129.9E-6 VTO=-.061)
.ENDS
******
*SRC=TLV2341MB;T2341MB;Opamps;TI-"TLVxxx";Supply Voltage = 5V
*SYM=TIOPAMP
* TLV2341 MEDIUM BIAS OPERATIONAL AMPLIFIER "MACROMODEL" SUBCIRCUIT
* REV (N/A)      Supply Voltage: 5V
* CONNECTIONS:   NON-INVERTING INPUT
*                | INVERTING INPUT
*                | | POSITIVE POWER SUPPLY
*                | | | NEGATIVE POWER SUPPLY
*                | | | | OUTPUT
*                | | | | |
.SUBCKT T2341MB  1 2 3 4 5
*
C1   11 12 8.92E-12
C2    6  7 20.00E-12
DC    5 53 DX
DE   54  5 DX
DLP  90 91 DX
DLN  92 90 DX
DP    4  3 DX
EGND 99  0 POLY(2)  3 0   4 0  0 .5 .5
FB 7 99 POLY(5) VB VC VE VLP VLN 0 21.49E6 -30E6 30E6 30E6 -30E6
GA    6  0 11 12 52.78E-6
GCM 0  6 10 99 3.036E-9
HLIM 90  0 VLIM 1K
ISS   3 10 DC 8.000E-6
J1   11  2 10 JX
J2   12  1 10 JX
R2    6  9 100.0E3
RD1  60 11 18.95E3
RD2  60 12 18.95E3
RO1   8  5 75
RO2   7 99 75
RP  3 4 51.55E3
RSS  10 99 25.00E6
VAD 60 4 -.5
VB    9  0 DC 0
VC 3 53 DC 1.69
VE   54  4 DC .59
VLIM  7  8 DC 0
VLP  91  0 DC 25
VLN   0 92 DC 25
.MODEL DX D(IS=800.0E-18)
.MODEL JX PJF(IS=300.0E-15 BETA=696.4E-6 VTO=-.0175)
.ENDS
******
*SRC=TLV2342IA;T2342IA;Opamps;TI-"TLVxxx";Supply Voltage = 3V
*SYM=TIOPAMP
* TLV2342I OPERATIONAL AMPLIFIER "MACROMODEL" SUBCIRCUIT
* REV (N/A)
* Supply Voltage = 3V
* CONNECTIONS:   NON-INVERTING INPUT
*                | INVERTING INPUT
*                | | POSITIVE POWER SUPPLY
*                | | | NEGATIVE POWER SUPPLY
*                | | | | OUTPUT
*                | | | | |
.SUBCKT T2342IA  1 2 3 4 5
*
C1   11 12 2.646E-12
C2    6  7 10.00E-12
DC    5 53 DX
DE   54  5 DX
DLP  90 91 DX
DLN  92 90 DX
DP    4  3 DX
EGND 99  0 POLY(2)  3 0   4 0  0 .5 .5
FB 7 99 POLY(5) VB VC VE VLP VLN 0 3.532E6 -4E6 4E6 4E6 -4E6
GA    6  0 11 12 31.42E-6
GCM 0  6 10 99 7.915E-9
ISS   3 10 DC 21.00E-6
HLIM 90  0 VLIM 1K
J1   11  2 10 JX
J2   12  1 10 JX
R2    6  9 100.0E3
RD1 60 11 31.83E3
RD2 60 12 31.83E3
RO1   8  5 50
RO2   7 99 50
RP 3  4 10E3
RSS  10 99 9.524E6
VAD  60  4  -.9
VB    9  0 DC 0
VC 3 53 DC 1.7
VE   54  4 DC .7
VLIM  7  8 DC 0
VLP  91  0 DC 30
VLN   0 92 DC 30
.MODEL DX D(IS=800.0E-18)
.MODEL JX PJF(IS=300.0E-15 BETA=94.00E-6 VTO=-.273)
.ENDS
******
*SRC=TLV2342IB;T2342IB;Opamps;TI-"TLVxxx";Supply Voltage = 5V
*SYM=TIOPAMP
* TLV2342I OPERATIONAL AMPLIFIER "MACROMODEL" SUBCIRCUIT
* REV (N/A)      Supply Voltage: 5V
* CONNECTIONS:   NON-INVERTING INPUT
*                | INVERTING INPUT
*                | | POSITIVE POWER SUPPLY
*                | | | NEGATIVE POWER SUPPLY
*                | | | | OUTPUT
*                | | | | |
.SUBCKT T2342IB  1 2 3 4 5
*
C1   11 12 5.657E-12
C2    6  7 20.00E-12
DC 5 53 DX
DE   54  5 DX
DLP  90 91 DX
DLN  92 90 DX
DP    4  3 DX
EGND 99  0 POLY(2)  3 0   4 0  0 .5 .5
FB 7 99 POLY(5) VB VC VE VLP VLN 0 1.120E6 -1E6 1E6 1E6 -1E6
GA    6  0 11 12 138.2E-6
GCM 0  6 10 99 28.46E-9
HLIM 90  0 VLIM 1K
ISS   3 10 DC 58.00E-6
J1   11  2 10 JX
J2   12  1 10 JX
R2    6  9 100.0E3
RD1  60 11 7.236E3
RD2  60 12 7.236E3
RO1   8  5 75
RO2   7 99 75
RP  3 4 8.1E3
RSS  10 99 3.448E6
VAD 60 4 -.7
VB    9  0 DC 0
VC 3 53 DC 1.85
VE   54  4 DC .7
VLIM  7  8 DC 0
VLP  91  0 DC 25
VLN   0 92 DC 25
.MODEL DX D(IS=800.0E-18)
.MODEL JX PJF(IS=300.0E-15 BETA=658.9E-6 VTO=-.151)
.ENDS
******
*SRC=TLV2344IA;T2344IA;Opamps;TI-"TLVxxx";Supply Voltage = 3V
*SYM=TIOPAMP
* TLV2344I OPERATIONAL AMPLIFIER "MACROMODEL" SUBCIRCUIT
* REV (N/A)
* Supply Voltage = 3V
* CONNECTIONS:   NON-INVERTING INPUT
*                | INVERTING INPUT
*                | | POSITIVE POWER SUPPLY
*                | | | NEGATIVE POWER SUPPLY
*                | | | | OUTPUT
*                | | | | |
.SUBCKT T2344IA  1 2 3 4 5
*
C1   11 12 2.646E-12
C2    6  7 10.00E-12
DC    5 53 DX
DE   54  5 DX
DLP  90 91 DX
DLN  92 90 DX
DP    4  3 DX
EGND 99  0 POLY(2)  3 0   4 0  0 .5 .5
FB 7 99 POLY(5) VB VC VE VLP VLN 0 3.532E6 -4E6 4E6 4E6 -4E6
GA    6  0 11 12 31.42E-6
GCM 0  6 10 99 7.915E-9
ISS   3 10 DC 21.00E-6
HLIM 90  0 VLIM 1K
J1   11  2 10 JX
J2   12  1 10 JX
R2    6  9 100.0E3
RD1 60 11 31.83E3
RD2 60 12 31.83E3
RO1   8  5 50
RO2   7 99 50
RP 3  4 10E3
RSS  10 99 9.524E6
VAD  60  4  -.9
VB    9  0 DC 0
VC 3 53 DC 1.7
VE   54  4 DC .7
VLIM  7  8 DC 0
VLP  91  0 DC 30
VLN   0 92 DC 30
.MODEL DX D(IS=800.0E-18)
.MODEL JX PJF(IS=300.0E-15 BETA=94.00E-6 VTO=-.273)
.ENDS
******
*SRC=TLV2344IB;T2344IB;Opamps;TI-"TLVxxx";Supply Voltage = 5V
*SYM=TIOPAMP
* TLV2344I OPERATIONAL AMPLIFIER "MACROMODEL" SUBCIRCUIT
* REV (N/A)      Supply Voltage: 5V
* CONNECTIONS:   NON-INVERTING INPUT
*                | INVERTING INPUT
*                | | POSITIVE POWER SUPPLY
*                | | | NEGATIVE POWER SUPPLY
*                | | | | OUTPUT
*                | | | | |
.SUBCKT T2344IB  1 2 3 4 5
*
C1   11 12 5.657E-12
C2    6  7 20.00E-12
DC 5 53 DX
DE   54  5 DX
DLP  90 91 DX
DLN  92 90 DX
DP    4  3 DX
EGND 99  0 POLY(2)  3 0   4 0  0 .5 .5
FB 7 99 POLY(5) VB VC VE VLP VLN 0 1.120E6 -1E6 1E6 1E6 -1E6
GA    6  0 11 12 138.2E-6
GCM 0  6 10 99 28.46E-9
HLIM 90  0 VLIM 1K
ISS   3 10 DC 58.00E-6
J1   11  2 10 JX
J2   12  1 10 JX
R2    6  9 100.0E3
RD1  60 11 7.236E3
RD2  60 12 7.236E3
RO1   8  5 75
RO2   7 99 75
RP  3 4 8.1E3
RSS  10 99 3.448E6
VAD 60 4 -.7
VB    9  0 DC 0
VC 3 53 DC 1.85
VE   54  4 DC .7
VLIM  7  8 DC 0
VLP  91  0 DC 25
VLN   0 92 DC 25
.MODEL DX D(IS=800.0E-18)
.MODEL JX PJF(IS=300.0E-15 BETA=658.9E-6 VTO=-.151)
.ENDS
******
