**********
*SRC=TLC2252T10;TLC2252T10;Opamps;TI-"TLCxxx";
*SYM=TIOPAMP
* TLC2252 OPERATIONAL AMPLIFIER "MACROMODEL" SUBCIRCUIT
* REV (N/A) 10 VOLT MODEL
* CONNECTIONS:   NON-INVERTING INPUT
*                | INVERTING INPUT
*                | | POSITIVE POWER SUPPLY
*                | | | NEGATIVE POWER SUPPLY
*                | | | | OUTPUT
*                | | | | |
.SUBCKT TLC2252T10  1 2 3 4 5
*
C1   11 12 5.643E-12
C2    6  7 30.00E-12
DC    5 53 DX
DE   54  5 DX
DLP  90 91 DX
DLN  92 90 DX
DP    4  3 DX
EGND 99  0 POLY(2)  (3,0) (4,0) 0 .5 .5
FB    7 99 POLY(5) VB VC VE VLP VLN 0 328.4E6 -30E6 30E6 30E6 -30E6
GA    6  0 11 12 26.39E-6
GCM 0  6 10 99 1.661E-9
ISS   3 10 DC 3.600E-6
HLIM 90  0 VLIM 1K
J1   11  2 10 JX
J2   12  1 10 JX
R2    6  9 100.0E3
RD1 60 11 37.89E3
RD2 60 12 37.89E3
RO1   8  5 70
RO2   7 99 50
RP 3  4 274E3
RSS  10 99 55.56E6
VAD  60 4 -.5
VB    9  0 DC 0
VC 3 53 DC .656
VE   54  4 DC .656
VLIM  7  8 DC 0
VLP  91  0 DC -.235
VLN 0 92 DC 7.5
.MODEL DX D(IS=800.0E-18)
.MODEL JX PJF(IS=500.0E-15 BETA=220E-6 VTO=-.023)
.ENDS
**********
*SRC=TLC2252T10B;TLC2252T10B;Opamps;TI-"TLCxxx";
*SYM=TIOPAMP
* TLC2252 OPERATIONAL AMPLIFIER "MACROMODEL" SUBCIRCUIT
* REV (N/A) (10V MODEL) (LEVEL II)
* CONNECTIONS:   NON-INVERTING INPUT
*                | INVERTING INPUT
*                | | POSITIVE POWER SUPPLY
*                | | | NEGATIVE POWER SUPPLY
*                | | | | OUTPUT
*                | | | | |
.SUBCKT TLC2252T10B  1 2 3 4 5
*
C1   11 12 6.043E-12
C2    6  7 50.00E-12
CPSR 85 86 7.96E-9
DCM+ 81 82 DX
DCM- 83 81 DX
DC    5 53 DX
DE   54  5 DX
DLP  90 91 DX
DLN  92 90 DX
DP    4  3 DX
ECMR 84 99 2 99 1
EGND 99  0 POLY(2) (3,0) (4,0) 0 .5 .5
EPSR 85 0 POLY(1) (3,4) -1736E-6  173.6E-6
ENSE 89 2 POLY(1) (88,0) 200E-6  1
FB 7 99 POLY(6) VB VC VE VLP VLN VPSR 0 200E6 -30E6 30E6 30E6 -30E6 30E6
GA    6  0 11 12 28.27E-6
GCM 0  6 10 99 2.635E-9
GPSR 85 86 85 86 100E-6
GRD1 60 11 60 11 28.273E-6
GRD2 60 12 60 12 28.273E-6
HLIM 90 0 VLIM 1K
HCMR 80 1 POLY(2) VCMP VCMM 0 1E2 1E2
IRP 3 4 34E-6
ISS   3 10 DC 6.000E-6
IIO 2 0 .5E-12
I1 88 0 1E-21
J1   11  89 10 JX
J2   12  80 10 JX
R2    6  9 100.0E3
RCM 84 81 1K
RN1 88 0 100
RO1   8  5 70
RO2   7 99 50
RSS  10 99 33.33E6
VAD 60 4 -.5
VCMP 82 99 3.6
VCMM 83 99 -4.7
VB    9  0 DC 0
VC 3 53 DC .656
VE   54  4 DC .656
VLIM  7  8 DC 0
VLP  91  0 DC -.234
VLN 0 92 DC 7.5
VPSR 0 86 DC 0
.MODEL DX D(IS=800.0E-18)
.MODEL JX PJF(IS=500.0E-15 BETA=360E-6 VTO=-.023 KF=8.6E-18)
.ENDS
**********
*SRC=TLC2252T5;TLC2252T5;Opamps;TI-"TLCxxx";
*SYM=TIOPAMP
* TLC2252 OPERATIONAL AMPLIFIER "MACROMODEL" SUBCIRCUIT
* (5V MODEL)
* CONNECTIONS:   NON-INVERTING INPUT
*                | INVERTING INPUT
*                | | POSITIVE POWER SUPPLY
*                | | | NEGATIVE POWER SUPPLY
*                | | | | OUTPUT
*                | | | | |
.SUBCKT TLC2252T5  1 2 3 4 5
*
C1   11 12 6.369E-12
C2    6  7 25.00E-12
CSS  10 99 3.182E-12
DC    5 53 DX
DE   54  5 DX
DLP  90 91 DX
DLN  92 90 DX
DP    4  3 DX
EGND 99  0 POLY(2) (3,0) (4,0) 0 .5 .5
FB    7 99 POLY(5) VB VC VE VLP VLN 0 57.62E6 -60E6 60E6 60E6 -60E6
GA    6  0 11 12 26.86E-6
GCM   0  6 10 99 2.686E-9
ISS   3 10 DC 3.100E-6
HLIM 90  0 VLIM 1K
J1   11  2 10 JX
J2   12  1 10 JX
R2    6  9 100.0E3
RD1 60 11 37.23E3
RD2 60 12 37.23E3
RO1   8  5 84
RO2   7 99 84
RP    3  4 71.43E3
RSS  10 99 64.52E6
VAD  60 4 -.5
VB    9  0 DC 0
VC 3 53 DC .605
VE   54  4 DC .605
VLIM  7  8 DC 0
VLP  91  0 DC -.235
VLN 0 92 DC 7.500
.MODEL DX D(IS=800.0E-18)
.MODEL JX PJF(IS=500.0E-15 BETA=139E-6 VTO=-.05)
.ENDS
**********
*SRC=TLC2252T5B;TLC2252T5B;Opamps;TI-"TLCxxx";
*SYM=TIOPAMP
* TLC2252 OPERATIONAL AMPLIFIER "MACROMODEL" SUBCIRCUIT
* REV (N/A) (5V MODEL) LEVEL II
* CONNECTIONS:   NON-INVERTING INPUT
*                | INVERTING INPUT
*                | | POSITIVE POWER SUPPLY
*                | | | NEGATIVE POWER SUPPLY
*                | | | | OUTPUT
*                | | | | |
.SUBCKT TLC2252T5B  1 2 3 4 5
*
C1   11 12 6.369E-12
C2    6  7 25.00E-12
CPSR 85 86  7.96E-9
CSS  10 99 3.182E-12
DCM+ 81 82 DX
DCM- 83 81 DX
DC    5 53 DX
DE   54  5 DX
DLP  90 91 DX
DLN  92 90 DX
DP    4  3 DX
ECMR 84 99 2 99 1
EGND 99  0 POLY(2) (3,0) (4,0) 0 .5 .5
EPSR 85 0 POLY(1) (3,4) -141.3E-6 28.29E-6
ENSE 89 2 POLY(1) (88,0) 200E-6 1
FB 7 99 POLY(6) VB VC VE VLP VLN VPSR 0 57.62E6 -60E6 60E6 60E6 -60E6 60E6
GA    6  0 11 12 26.86E-6
GCM   0  6 10 99 2.686E-9
GPSR 85 86 85 86 100E-6
GRD1 60 11 60 11 26.86E-6
GRD2 60 12 60 12 26.86E-6
HLIM 90  0 VLIM 1K
HCMR 80 1 POLY(2) VCMP VCMM 0 1E2 1E2
IRP 3 4 70E-6
ISS 3 10 DC 3.100E-6
IIO 2 0 .5E-12
I1 88 0 1E-21
J1   11  89 10 JX
J2   12  80 10 JX
R2    6  9 100.0E3
RCM 84 81 1K
RN1 88 0 100
RO1   8  5 84
RO2   7 99 84
RSS  10 99 64.52E6
VAD  60 4 -.5
VCMP 82 99 -0.4
VCMM 83 99 -2.0
VB    9  0 DC 0
VC 3 53 DC .605
VE   54  4 DC .605
VLIM  7  8 DC 0
VLP  91  0 DC -.235
VLN 0 92 DC 7.500
VPSR 0 86 DC 0
.MODEL DX D(IS=800.0E-18)
.MODEL JX PJF(IS=500.0E-15 BETA=139E-6 VTO=-.05 KF=1.6E-18)
.ENDS
**********
*SRC=TLC2254T10;TLC2254T10;Opamps;TI-"TLCxxx";
*SYM=TIOPAMP
* TLC2254 OPERATIONAL AMPLIFIER "MACROMODEL" SUBCIRCUIT
* REV (N/A) 10 VOLT MODEL
* CONNECTIONS:   NON-INVERTING INPUT
*                | INVERTING INPUT
*                | | POSITIVE POWER SUPPLY
*                | | | NEGATIVE POWER SUPPLY
*                | | | | OUTPUT
*                | | | | |
.SUBCKT TLC2254T10  1 2 3 4 5
*
C1   11 12 5.643E-12
C2    6  7 30.00E-12
DC    5 53 DX
DE   54  5 DX
DLP  90 91 DX
DLN  92 90 DX
DP    4  3 DX
EGND 99  0 POLY(2) (3,0) (4,0) 0 .5 .5
FB 7 99 POLY(5) VB VC VE VLP VLN 0 76.4E6 -30E6 30E6 30E6 -30E6
GA    6  0 11 12 26.39E-6
GCM 0  6 10 99 1.661E-9
ISS   3 10 DC 3.600E-6
HLIM 90  0 VLIM 1K
J1   11  2 10 JX
J2   12  1 10 JX
R2    6  9 100.0E3
RD1 60 11 37.89E3
RD2 60 12 37.89E3
RO1   8  5 70
RO2   7 99 50
RP 3  4 274E3
RSS  10 99 55.56E6
VAD  60 4 -.5
VB    9  0 DC 0
VC 3 53 DC .656
VE   54  4 DC .656
VLIM  7  8 DC 0
VLP  91  0 DC -.235
VLN 0 92 DC 7.5
.MODEL DX D(IS=800.0E-18)
.MODEL JX PJF(IS=500.0E-15 BETA=220E-6 VTO=-.023)
.ENDS
**********
*SRC=TLC2254T10B;TLC2254T10B;Opamps;TI-"TLCxxx";
*SYM=TIOPAMP
* TLC2254 OPERATIONAL AMPLIFIER "MACROMODEL" SUBCIRCUIT
* REV (N/A) (10V MODEL) (LEVEL II)
* CONNECTIONS:   NON-INVERTING INPUT
*                | INVERTING INPUT
*                | | POSITIVE POWER SUPPLY
*                | | | NEGATIVE POWER SUPPLY
*                | | | | OUTPUT
*                | | | | |
.SUBCKT TLC2254T10B  1 2 3 4 5
*
C1   11 12 6.043E-12
C2    6  7 50.00E-12
CPSR 85 86 7.96E-9
DCM+ 81 82 DX
DCM- 83 81 DX
DC    5 53 DX
DE   54  5 DX
DLP  90 91 DX
DLN  92 90 DX
DP    4  3 DX
ECMR 84 99 2 99 1
EGND 99  0 POLY(2) (3,0) (4,0) 0 .5 .5
EPSR 85 0 POLY(1) (3,4) -1736E-6  173.6E-6
ENSE 89 2 POLY(1) (88,0) 200E-6  1
FB 7 99 POLY(6) VB VC VE VLP VLN VPSR 0 46.8E6 -30E6 30E6 30E6 -30E6 30E5
GA    6  0 11 12 28.27E-6
GCM 0  6 10 99 2.635E-9
GPSR 85 86 85 86 100E-6
GRD1 60 11 60 11 28.273E-6
GRD2 60 12 60 12 28.273E-6
HLIM 90 0 VLIM 1K
HCMR 80 1 POLY(2) VCMP VCMM 0 1E2 1E2
IRP 3 4 34E-6
ISS   3 10 DC 6.000E-6
IIO 2 0 .5E-12
I1 88 0 1E-21
J1   11  89 10 JX
J2   12  80 10 JX
R2    6  9 100.0E3
RCM 84 81 1K
RN1 88 0 100
RO1   8  5 70
RO2   7 99 50
RSS  10 99 33.33E6
VAD 60 4 -.5
VCMP 82 99 3.6
VCMM 83 99 -4.7
VB    9  0 DC 0
VC 3 53 DC .656
VE   54  4 DC .656
VLIM  7  8 DC 0
VLP  91  0 DC -.234
VLN 0 92 DC 7.5
VPSR 0 86 DC 0
.MODEL DX D(IS=800.0E-18)
.MODEL JX PJF(IS=500.0E-15 BETA=360E-6 VTO=-.023 KF=8.6E-18)
.ENDS
**********
*SRC=TLC2254T5;TLC2254T5;Opamps;TI-"TLCxxx";
*SYM=TIOPAMP
* TLC2254 OPERATIONAL AMPLIFIER "MACROMODEL" SUBCIRCUIT
* (5V MODEL)
* CONNECTIONS:   NON-INVERTING INPUT
*                | INVERTING INPUT
*                | | POSITIVE POWER SUPPLY
*                | | | NEGATIVE POWER SUPPLY
*                | | | | OUTPUT
*                | | | | |
.SUBCKT TLC2254T5  1 2 3 4 5
*
C1   11 12 6.369E-12
C2    6  7 25.00E-12
CSS  10 99 3.182E-12
DC    5 53 DX
DE   54  5 DX
DLP  90 91 DX
DLN  92 90 DX
DP    4  3 DX
EGND 99  0 POLY(2) (3,0) (4,0) 0 .5 .5
FB    7 99 POLY(5) VB VC VE VLP VLN 0 57.62E6 -60E6 60E6 60E6 -60E6
GA    6  0 11 12 26.86E-6
GCM   0  6 10 99 2.686E-9
ISS   3 10 DC 3.100E-6
HLIM 90  0 VLIM 1K
J1   11  2 10 JX
J2   12  1 10 JX
R2    6  9 100.0E3
RD1 60 11 37.23E3
RD2 60 12 37.23E3
RO1   8  5 84
RO2   7 99 84
RP    3  4 71.43E3
RSS  10 99 64.52E6
VAD  60 4 -.5
VB    9  0 DC 0
VC 3 53 DC .605
VE   54  4 DC .605
VLIM  7  8 DC 0
VLP  91  0 DC -.235
VLN 0 92 DC 7.500
.MODEL DX D(IS=800.0E-18)
.MODEL JX PJF(IS=500.0E-15 BETA=139E-6 VTO=-.05)
.ENDS
**********
*SRC=TLC2254T5B;TLC2254T5B;Opamps;TI-"TLCxxx";
*SYM=TIOPAMP
* TLC2254 OPERATIONAL AMPLIFIER "MACROMODEL" SUBCIRCUIT
* REV (N/A) (5V MODEL) LEVEL II
* CONNECTIONS:   NON-INVERTING INPUT
*                | INVERTING INPUT
*                | | POSITIVE POWER SUPPLY
*                | | | NEGATIVE POWER SUPPLY
*                | | | | OUTPUT
*                | | | | |
.SUBCKT TLC2254T5B  1 2 3 4 5
*
C1   11 12 6.369E-12
C2    6  7 25.00E-12
CPSR 85 86  7.96E-9
CSS  10 99 3.182E-12
DCM+ 81 82 DX
DCM- 83 81 DX
DC    5 53 DX
DE   54  5 DX
DLP  90 91 DX
DLN  92 90 DX
DP    4  3 DX
ECMR 84 99 2 99 1
EGND 99  0 POLY(2) (3,0) (4,0) 0 .5 .5
EPSR 85 0 POLY(1) (3,4) -141.3E-6 28.29E-6
ENSE 89 2 POLY(1) (88,0) 200E-6 1
FB 7 99 POLY(6) VB VC VE VLP VLN VPSR 0 57.62E6 -60E6 60E6 60E6 -60E6 60E6
GA    6  0 11 12 26.86E-6
GCM   0  6 10 99 2.686E-9
GPSR 85 86 85 86 100E-6
GRD1 60 11 60 11 26.86E-6
GRD2 60 12 60 12 26.86E-6
HLIM 90  0 VLIM 1K
HCMR 80 1 POLY(2) VCMP VCMM 0 1E2 1E2
IRP 3 4 70E-6
ISS 3 10 DC 3.100E-6
IIO 2 0 .5E-12
I1 88 0 1E-21
J1   11  89 10 JX
J2   12  80 10 JX
R2    6  9 100.0E3
RCM 84 81 1K
RN1 88 0 100
RO1   8  5 84
RO2   7 99 84
RSS  10 99 64.52E6
VAD  60 4 -.5
VCMP 82 99 -0.4
VCMM 83 99 -2.0
VB    9  0 DC 0
VC 3 53 DC .605
VE   54  4 DC .605
VLIM  7  8 DC 0
VLP  91  0 DC -.235
VLN 0 92 DC 7.500
VPSR 0 86 DC 0
.MODEL DX D(IS=800.0E-18)
.MODEL JX PJF(IS=500.0E-15 BETA=139E-6 VTO=-.05 KF=1.6E-18)
.ENDS
**********
*SRC=TLC2262T1;TLC2262T1;Opamps;TI-"TLCxxx";
*SYM=TIOPAMP
* TLC2262 OPERATIONAL AMPLIFIER "MACROMODEL" SUBCIRCUIT
* REV (N/A)  SUPPLY VOLTAGE: +/-5V
* CONNECTIONS:   NON-INVERTING INPUT
*                | INVERTING INPUT
*                | | POSITIVE POWER SUPPLY
*                | | | NEGATIVE POWER SUPPLY
*                | | | | OUTPUT
*                | | | | |
.SUBCKT TLC2262T1  1 2 3 4 5
*
C1   11 12 3.073E-12
C2    6  7 15.00E-12
DC    5 53 DX
DE   54  5 DX
DLP  90 91 DX
DLN  92 90 DX
DP    4  3 DX
EGND 99  0 POLY(2) (3,0) (4,0) 0 .5 .5
FB 7 99 POLY(5) VB VC VE VLP VLN 0 16.37E6 -20E6 20E6 20E6 -20E6
GA    6  0 11 12 51.84E-6
GCM 0  6 10 99 4.12E-9
ISS   3 10 DC 8.250E-6
HLIM 90  0 VLIM 1K
J1   11  2 10 JX
J2   12  1 10 JX
R2    6  9 100.0E3
RD1 60 11 19.29E3
RD2 60 12 19.29E3
RO1   8  5 110
RO2   7 99 110
RP    3  4 47.06E3
RSS  10 99 24.24E6
VAD  60 4 -.6
VB    9  0 DC 0
VC 3 53 DC .65
VE   54  4 DC .65
VLIM  7  8 DC 0
VLP  91  0 DC .1
VLN 0 92 DC 9.4
.MODEL DX D(IS=800.0E-18)
.MODEL JX PJF(IS=500.0E-15 BETA=651.4E-6 VTO=-.015)
.ENDS
**********
*SRC=TLC2262T5;TLC2262T5;Opamps;TI-"TLCxxx";
*SYM=TIOPAMP
* TLC2262 OPERATIONAL AMPLIFIER "MACROMODEL" SUBCIRCUIT
* REV (N/A)  SUPPLY VOLTAGE: 5V
* CONNECTIONS:   NON-INVERTING INPUT
*                | INVERTING INPUT
*                | | POSITIVE POWER SUPPLY
*                | | | NEGATIVE POWER SUPPLY
*                | | | | OUTPUT
*                | | | | |
.SUBCKT TLC2262T5  1 2 3 4 5
*
C1   11 12 3.520E-12
C2    6  7 15.00E-12
CPSR 85 86 159E-9
DCM+ 81 82 DX
DCM- 83 81 DX
DC    5 53 DX
DE   54  5 DX
DLP  90 91 DX
DLN  92 90 DX
DP    4  3 DX
ECMR 84 99 2 99 1
EGND 99  0 POLY(2) (3,0) (4,0) 0 .5 .5
EPSR 85 0 POLY(1) (3,4) -89E-6 17.8E-6
ENSE 89 2 POLY(1) (88,0) 300E-6  1
FB 7 99 POLY(6) VB VC VE VLP VLN VPSR 0 15.03E6 -30E6 30E6 30E6 -30E6 15E6
GA    6  0 11 12 47.12E-6
GCM 0  6 10 99 6.666E-9
GPSR 85 86 85 86 100E-6
GRD1 60 11 60 11 47.1E-6
GRD2 60 12 60 12 47.1E-6
HLIM 90  0 VLIM 1K
HCMR 80 1 POLY(2) VCMP VCMM 0 1E2 1E2
IRP 3 4 192E-6
ISS   3 10 DC 8.250E-6
IIO 2 0 .5E-12
I1 88 0 1E-21
J1   11  89 10 JX
J2   12  80 10 JX
R2 6  9 100E3
RCM 84 81 1K
RN1 88 0 100
RO1   8  5 120
RO2   7 99 120
RSS  10 99 24.24E6
VAD  60  4  -0.6
VCMP 82 99 1.2
VCMM 83 99 -2.3
VB    9  0 DC 0
VC 3 53 DC .65
VE   54  4 DC .65
VLIM  7  8 DC 0
VLP  91  0 DC 0
VLN 0 92 DC 9.4
VPSR 0 86 DC 0
.MODEL DX D(IS=800.0E-18)
.MODEL JX PJF(IS=500.0E-15 BETA=538.3E-6 VTO=-.031 KF=1.2E-17)
.ENDS
**********
*SRC=TLC2264T1;TLC2264T1;Opamps;TI-"TLCxxx";
*SYM=TIOPAMP
* TLC2264 OPERATIONAL AMPLIFIER "MACROMODEL" SUBCIRCUIT
* REV (N/A)  SUPPLY VOLTAGE: +/-5V
* CONNECTIONS:   NON-INVERTING INPUT
*                | INVERTING INPUT
*                | | POSITIVE POWER SUPPLY
*                | | | NEGATIVE POWER SUPPLY
*                | | | | OUTPUT
*                | | | | |
.SUBCKT TLC2264T1  1 2 3 4 5
*
C1   11 12 3.073E-12
C2    6  7 15.00E-12
DC    5 53 DX
DE   54  5 DX
DLP  90 91 DX
DLN  92 90 DX
DP    4  3 DX
EGND 99  0 POLY(2) (3,0) (4,0) 0 .5 .5
FB 7 99 POLY(5) VB VC VE VLP VLN 0 16.37E6 -20E6 20E6 20E6 -20E6
GA    6  0 11 12 51.84E-6
GCM 0  6 10 99 4.12E-9
ISS   3 10 DC 8.250E-6
HLIM 90  0 VLIM 1K
J1   11  2 10 JX
J2   12  1 10 JX
R2    6  9 100.0E3
RD1 60 11 19.29E3
RD2 60 12 19.29E3
RO1   8  5 110
RO2   7 99 110
RP    3  4 47.06E3
RSS  10 99 24.24E6
VAD  60 4 -.6
VB    9  0 DC 0
VC 3 53 DC .65
VE   54  4 DC .65
VLIM  7  8 DC 0
VLP  91  0 DC .1
VLN 0 92 DC 9.4
.MODEL DX D(IS=800.0E-18)
.MODEL JX PJF(IS=500.0E-15 BETA=651.4E-6 VTO=-.015)
.ENDS
**********
*SRC=TLC2264T5;TLC2264T5;Opamps;TI-"TLCxxx";
*SYM=TIOPAMP
* TLC2264 OPERATIONAL AMPLIFIER "MACROMODEL" SUBCIRCUIT
* REV (N/A)  SUPPLY VOLTAGE: 5V
* CONNECTIONS:   NON-INVERTING INPUT
*                | INVERTING INPUT
*                | | POSITIVE POWER SUPPLY
*                | | | NEGATIVE POWER SUPPLY
*                | | | | OUTPUT
*                | | | | |
.SUBCKT TLC2264T5  1 2 3 4 5
*
C1   11 12 3.520E-12
C2    6  7 15.00E-12
CPSR 85 86 159E-9
DCM+ 81 82 DX
DCM- 83 81 DX
DC    5 53 DX
DE   54  5 DX
DLP  90 91 DX
DLN  92 90 DX
DP    4  3 DX
ECMR 84 99 2 99 1
EGND 99  0 POLY(2) (3,0) (4,0) 0 .5 .5
EPSR 85 0 POLY(1) (3,4) -89E-6 17.8E-6
ENSE 89 2 POLY(1) (88,0) 300E-6  1
FB 7 99 POLY(6) VB VC VE VLP VLN VPSR 0 15.03E6 -30E6 30E6 30E6 -30E6 15E6
GA    6  0 11 12 47.12E-6
GCM 0  6 10 99 6.666E-9
GPSR 85 86 85 86 100E-6
GRD1 60 11 60 11 47.1E-6
GRD2 60 12 60 12 47.1E-6
HLIM 90  0 VLIM 1K
HCMR 80 1 POLY(2) VCMP VCMM 0 1E2 1E2
IRP 3 4 192E-6
ISS   3 10 DC 8.250E-6
IIO 2 0 .5E-12
I1 88 0 1E-21
J1   11  89 10 JX
J2   12  80 10 JX
R2 6  9 100E3
RCM 84 81 1K
RN1 88 0 100
RO1   8  5 120
RO2   7 99 120
RSS  10 99 24.24E6
VAD  60  4  -0.6
VCMP 82 99 1.2
VCMM 83 99 -2.3
VB    9  0 DC 0
VC 3 53 DC .65
VE   54  4 DC .65
VLIM  7  8 DC 0
VLP  91  0 DC 0
VLN 0 92 DC 9.4
VPSR 0 86 DC 0
.MODEL DX D(IS=800.0E-18)
.MODEL JX PJF(IS=500.0E-15 BETA=538.3E-6 VTO=-.031 KF=1.2E-17)
.ENDS
**********
*SRC=TLC2272T1;TLC2272T1;Opamps;TI-"TLCxxx";
*SYM=TIOPAMP
* TLC2272 OPERATIONAL AMPLIFIER "MACROMODEL" SUBCIRCUIT
* REV (N/A)      SUPPLIES +/-5V
* CONNECTIONS:   NON-INVERTING INPUT
*                | INVERTING INPUT
*                | | POSITIVE POWER SUPPLY
*                | | | NEGATIVE POWER SUPPLY
*                | | | | OUTPUT
*                | | | | |
.SUBCKT TLC2272T1  1 2 3 4 5
*
C1   11 12 14E-12
C2    6  7 60.00E-12
DC    5 53 DX
DE   54  5 DX
DLP  90 91 DX
DLN  92 90 DX
DP    4  3 DX
EGND 99  0 POLY(2) (3,0) (4,0) 0 .5 .5
FB 7 99 POLY(5) VB VC VE VLP VLN 0 130E4 -1E6 1E6 1E6 -1E6
GA 6  0 11 12 452.4E-6
GCM 0  6 10 99 50.44E-9
ISS   3 10 DC 228.0E-6
HLIM 90  0 VLIM 1K
J1   11  2 10 JX
J2   12  1 10 JX
R2    6  9 100.0E3
RD1 60 11 2.210E3
RD2 60 12 2.210E3
RO1   8  5 50
RO2   7 99 50
RP    3  4 8.696E3
RSS  10 99 877.2E3
VAD  60  4  -.5
VB    9  0 DC 0
VC 3 53 DC .789
VE   54  4 DC .789
VLIM  7  8 DC 0
VLP  91  0 DC 2.4
VLN 0 92 DC 9.6
.MODEL DX D(IS=800.0E-18)
.MODEL JX PJF(IS=1.500E-12 BETA=1.795E-3 VTO=-.22)
.ENDS
**********
*SRC=TLC2272T5;TLC2272T5;Opamps;TI-"TLCxxx";
*SYM=TIOPAMP
* TLC2272 OPERATIONAL AMPLIFIER "MACROMODEL" SUBCIRCUIT
* REV (N/A)
* SUPPLY VOLTAGE = 5V
* CONNECTIONS:   NON-INVERTING INPUT
*                | INVERTING INPUT
*                | | POSITIVE POWER SUPPLY
*                | | | NEGATIVE POWER SUPPLY
*                | | | | OUTPUT
*                | | | | |
.SUBCKT TLC2272T5  1 2 3 4 5
*
C1   11 12 14E-12
C2    6  7 60.00E-12
DC    5 53 DX
DE   54  5 DX
DLP  90 91 DX
DLN  92 90 DX
DP    4  3 DX
EGND 99  0 POLY(2) (3,0) (4,0) 0 .5 .5
FB 7 99 POLY(5) VB VC VE VLP VLN 0 984.9E3 -1E6 1E6 1E6 -1E6
GA    6  0 11 12 377.0E-6
GCM 0  6 10 99 134E-9
ISS   3 10 DC 216.0E-6
HLIM 90  0 VLIM 1K
J1   11  2 10 JX
J2   12  1 10 JX
R2    6  9 100.0E3
RD1 60 11 2.653E3
RD2 60 12 2.653E3
RO1   8  5 50
RO2   7 99 50
RP    3  4 4.310E3
RSS  10 99 925.9E3
VAD  60  4 -.5
VB    9  0 DC 0
VC 3 53 DC .78
VE   54  4 DC .78
VLIM  7  8 DC 0
VLP  91  0 DC 1.9
VLN 0 92 DC 9.4
.MODEL DX D(IS=800.0E-18)
.MODEL JX PJF(IS=1.500E-12 BETA=1.316E-3 VTO=-.270)
.ENDS
**********
*SRC=TLC2274T1;TLC2274T1;Opamps;TI-"TLCxxx";
*SYM=TIOPAMP
* TLC2274 OPERATIONAL AMPLIFIER "MACROMODEL" SUBCIRCUIT
* REV (N/A)      SUPPLIES +/-5V
* CONNECTIONS:   NON-INVERTING INPUT
*                | INVERTING INPUT
*                | | POSITIVE POWER SUPPLY
*                | | | NEGATIVE POWER SUPPLY
*                | | | | OUTPUT
*                | | | | |
.SUBCKT TLC2274T1  1 2 3 4 5
*
C1   11 12 14E-12
C2    6  7 60.00E-12
DC    5 53 DX
DE   54  5 DX
DLP  90 91 DX
DLN  92 90 DX
DP    4  3 DX
EGND 99  0 POLY(2) (3,0) (4,0) 0 .5 .5
FB 7 99 POLY(5) VB VC VE VLP VLN 0 130E4 -1E6 1E6 1E6 -1E6
GA 6  0 11 12 452.4E-6
GCM 0  6 10 99 50.44E-9
ISS   3 10 DC 228.0E-6
HLIM 90  0 VLIM 1K
J1   11  2 10 JX
J2   12  1 10 JX
R2    6  9 100.0E3
RD1 60 11 2.210E3
RD2 60 12 2.210E3
RO1   8  5 50
RO2   7 99 50
RP    3  4 8.696E3
RSS  10 99 877.2E3
VAD  60  4  -.5
VB    9  0 DC 0
VC 3 53 DC .789
VE   54  4 DC .789
VLIM  7  8 DC 0
VLP  91  0 DC 2.4
VLN 0 92 DC 9.6
.MODEL DX D(IS=800.0E-18)
.MODEL JX PJF(IS=1.500E-12 BETA=1.795E-3 VTO=-.22)
.ENDS
**********
*SRC=TLV2252IAA;TLV2252IAA;Opamps;TI-"TLVxxx";
*SYM=TIOPAMP
* TLV2252 OPERATIONAL AMPLIFIER "MACROMODEL" SUBCIRCUIT
* REV (N/A) (3V MODEL)
* CONNECTIONS:   NON-INVERTING INPUT
*                | INVERTING INPUT
*                | | POSITIVE POWER SUPPLY
*                | | | NEGATIVE POWER SUPPLY
*                | | | | OUTPUT
*                | | | | |
.SUBCKT TLV2252IAA  1 2 3 4 5
*
C1   11 12 8.29E-12
C2    6  7 60.00E-12
DC    5 53 DX
DE   54  5 DX
DLP  90 91 DX
DLN  92 90 DX
DP    4  3 DX
EGND 99  0 POLY(2) (3,0) (4,0) 0 .5 .5
FB    7 99 POLY(5) VB VC VE VLP VLN 0 61.40E6 -60E6 60E6 60E6 -60E6
GA 6  0 11 12 37.32E-6
GCM 0  6 10 99 9.654E-9
ISS   3 10 DC 6.000E-6
HLIM 90  0 VLIM 1K
J1   11  2 10 JX
J2   12  1 10 JX
R2    6  9 100.0E3
RD1 60 11 29.47E3
RD2 60 12 29.47E3
RO1   8  5 80
RO2   7 99 60
RP 3  4 107E3
RSS  10 99 33.33E6
VAD 60 4 -.5
VB    9  0 DC 0
VC    3 53 DC .6
VE   54  4 DC .6
VLIM  7  8 DC 0
VLP  91  0 DC -.3
VLN 0 92 DC 5.1
.MODEL DX D(IS=800.0E-18)
.MODEL JX PJF(IS=500.0E-15 BETA=383.7E-6 VTO=-.04)
.ENDS
**********
*SRC=TLV2252IAB;TLV2252IAB;Opamps;TI-"TLVxxx";
*SYM=TIOPAMP
* TLV2252 OPERATIONAL AMPLIFIER "MACROMODEL" SUBCIRCUIT
* REV (N/A) (3V MODEL) (LEVEL II)
* CONNECTIONS:   NON-INVERTING INPUT
*                | INVERTING INPUT
*                | | POSITIVE POWER SUPPLY
*                | | | NEGATIVE POWER SUPPLY
*                | | | | OUTPUT
*                | | | | |
.SUBCKT TLV2252IAB  1 2 3 4 5
*
C1   11 12 8.09E-12
C2    6  7 60.00E-12
CPSR 85 86 7.96E-9
DCM+ 81 82 DX
DCM- 83 81 DX
DC 5 53 DX
DE   54  5 DX
DLP  90 91 DX
DLN  92 90 DX
DP    4  3 DX
ECMR 84 99 2 99 1
EGND 99  0 POLY(2) (3,0) (4,0) 0 .5 .5
EPSR 85 0 POLY(1) (3,4) -300E-6  100E-6
ENSE 89 2 POLY(1) (88,0) 200E-6 1
FB  7 99 POLY(6) VB VC VE VLP VLN VPSR 0 64.80E6 -60E6 60E6 60E6 -60E6 60E6
GA 6  0 11 12 37.32E-6
GCM 0  6 10 99 10.378E-9
GPSR 85 86 85 86 100E-6
GRD1 60 11 60 11 33.93E-6
GRD2 60 12 60 12 33.93E-6
HLIM 90  0 VLIM 1K
HCMR 80 1 POLY(2) VCMP VCMM 0 1E2 1E2
IRP 3 4 28E-6
ISS   3 10 DC 6.000E-6
IIO 2 0 .5E-12
I1 88 0 1E-21
J1   11  89 10 JX
J2   12  80 10 JX
R2    6  9 100.0E3
RCM 84 81 1K
RN1 88 0 1E3
RO1   8  5 80
RO2   7 99 60
RSS  10 99 33.33E6
VAD 60 4 -.5
VCMP 82 99  0.2
VCMM 83 99 -1.5
VB    9  0 DC 0
VC    3 53 DC .6
VE   54  4 DC .6
VLIM  7  8 DC 0
VLP  91  0 DC -.3
VLN 0 92 DC 5.1
VPSR 0 86 DC 0
.MODEL DX D(IS=800.0E-18)
.MODEL JX PJF(IS=500.0E-15 BETA=354.7E-6 VTO=-.04 KF=6.6E-18)
.ENDS
**********
*SRC=TLV2252T5;TLV2252T5;Opamps;TI-"TLVxxx";
*SYM=TIOPAMP
* TLV2252 OPERATIONAL AMPLIFIER "MACROMODEL" SUBCIRCUIT
* (5V MODEL)
* CONNECTIONS:   NON-INVERTING INPUT
*                | INVERTING INPUT
*                | | POSITIVE POWER SUPPLY
*                | | | NEGATIVE POWER SUPPLY
*                | | | | OUTPUT
*                | | | | |
.SUBCKT TLV2252T5  1 2 3 4 5
*
C1   11 12 6.369E-12
C2    6  7 25.00E-12
CSS  10 99 3.182E-12
DC    5 53 DX
DE   54  5 DX
DLP  90 91 DX
DLN  92 90 DX
DP    4  3 DX
EGND 99  0 POLY(2) (3,0) (4,0) 0 .5 .5
FB    7 99 POLY(5) VB VC VE VLP VLN 0 57.62E6 -60E6 60E6 60E6 -60E6
GA    6  0 11 12 26.86E-6
GCM   0  6 10 99 2.686E-9
ISS   3 10 DC 3.100E-6
HLIM 90  0 VLIM 1K
J1   11  2 10 JX
J2   12  1 10 JX
R2    6  9 100.0E3
RD1 60 11 37.23E3
RD2 60 12 37.23E3
RO1   8  5 84
RO2   7 99 84
RP    3  4 71.43E3
RSS  10 99 64.52E6
VAD  60 4 -.5
VB    9  0 DC 0
VC 3 53 DC .605
VE   54  4 DC .605
VLIM  7  8 DC 0
VLP  91  0 DC -.235
VLN 0 92 DC 7.500
.MODEL DX D(IS=800.0E-18)
.MODEL JX PJF(IS=500.0E-15 BETA=139E-6 VTO=-.05)
.ENDS
**********
*SRC=TLV2252T5B;TLV2252T5B;Opamps;TI-"TLVxxx";
*SYM=TIOPAMP
* TLV2252 OPERATIONAL AMPLIFIER "MACROMODEL" SUBCIRCUIT
* REV (N/A) (5V MODEL) LEVEL II
* CONNECTIONS:   NON-INVERTING INPUT
*                | INVERTING INPUT
*                | | POSITIVE POWER SUPPLY
*                | | | NEGATIVE POWER SUPPLY
*                | | | | OUTPUT
*                | | | | |
.SUBCKT TLV2252T5B  1 2 3 4 5
*
C1   11 12 6.369E-12
C2    6  7 25.00E-12
CPSR 85 86  7.96E-9
CSS  10 99 3.182E-12
DCM+ 81 82 DX
DCM- 83 81 DX
DC    5 53 DX
DE   54  5 DX
DLP  90 91 DX
DLN  92 90 DX
DP    4  3 DX
ECMR 84 99 2 99 1
EGND 99  0 POLY(2) (3,0) (4,0) 0 .5 .5
EPSR 85 0 POLY(1) (3,4) -141.3E-6 28.29E-6
ENSE 89 2 POLY(1) (88,0) 200E-6 1
FB 7 99 POLY(6) VB VC VE VLP VLN VPSR 0 57.62E6 -60E6 60E6 60E6 -60E6 60E6
GA    6  0 11 12 26.86E-6
GCM   0  6 10 99 2.686E-9
GPSR 85 86 85 86 100E-6
GRD1 60 11 60 11 26.86E-6
GRD2 60 12 60 12 26.86E-6
HLIM 90  0 VLIM 1K
HCMR 80 1 POLY(2) VCMP VCMM 0 1E2 1E2
IRP 3 4 70E-6
ISS 3 10 DC 3.100E-6
IIO 2 0 .5E-12
I1 88 0 1E-21
J1   11  89 10 JX
J2   12  80 10 JX
R2    6  9 100.0E3
RCM 84 81 1K
RN1 88 0 100
RO1   8  5 84
RO2   7 99 84
RSS  10 99 64.52E6
VAD  60 4 -.5
VCMP 82 99 -0.4
VCMM 83 99 -2.0
VB    9  0 DC 0
VC 3 53 DC .605
VE   54  4 DC .605
VLIM  7  8 DC 0
VLP  91  0 DC -.235
VLN 0 92 DC 7.500
VPSR 0 86 DC 0
.MODEL DX D(IS=800.0E-18)
.MODEL JX PJF(IS=500.0E-15 BETA=139E-6 VTO=-.05 KF=1.6E-18)
.ENDS
**********
*SRC=TLV2254;TLV2254;Opamps;TI-"TLVxxx";
*SYM=TIOPAMP
* TLV2254 OPERATIONAL AMPLIFIER "MACROMODEL" SUBCIRCUIT
* REV (N/A) (3V MODEL)
* CONNECTIONS:   NON-INVERTING INPUT
*                | INVERTING INPUT
*                | | POSITIVE POWER SUPPLY
*                | | | NEGATIVE POWER SUPPLY
*                | | | | OUTPUT
*                | | | | |
.SUBCKT TLV2254  1 2 3 4 5
*
C1   11 12 8.29E-12
C2    6  7 60.00E-12
DC    5 53 DX
DE   54  5 DX
DLP  90 91 DX
DLN  92 90 DX
DP    4  3 DX
EGND 99  0 POLY(2) (3,0) (4,0) 0 .5 .5
FB    7 99 POLY(5) VB VC VE VLP VLN 0 61.40E6 -60E6 60E6 60E6 -60E6
GA 6  0 11 12 37.32E-6
GCM 0  6 10 99 9.654E-9
ISS   3 10 DC 6.000E-6
HLIM 90  0 VLIM 1K
J1   11  2 10 JX
J2   12  1 10 JX
R2    6  9 100.0E3
RD1 60 11 29.47E3
RD2 60 12 29.47E3
RO1   8  5 80
RO2   7 99 60
RP 3  4 107E3
RSS  10 99 33.33E6
VAD 60 4 -.5
VB    9  0 DC 0
VC    3 53 DC .6
VE   54  4 DC .6
VLIM  7  8 DC 0
VLP  91  0 DC -.3
VLN 0 92 DC 5.1
.MODEL DX D(IS=800.0E-18)
.MODEL JX PJF(IS=500.0E-15 BETA=383.7E-6 VTO=-.04)
.ENDS
**********
*SRC=TLV2254IAB;TLV2254IAB;Opamps;TI-"TLVxxx";
*SYM=TIOPAMP
* TLV2254 OPERATIONAL AMPLIFIER "MACROMODEL" SUBCIRCUIT
* REV (N/A) (3V MODEL) (LEVEL II)
* CONNECTIONS:   NON-INVERTING INPUT
*                | INVERTING INPUT
*                | | POSITIVE POWER SUPPLY
*                | | | NEGATIVE POWER SUPPLY
*                | | | | OUTPUT
*                | | | | |
.SUBCKT TLV2254IAB  1 2 3 4 5
*
C1   11 12 8.09E-12
C2    6  7 60.00E-12
CPSR 85 86 7.96E-9
DCM+ 81 82 DX
DCM- 83 81 DX
DC 5 53 DX
DE   54  5 DX
DLP  90 91 DX
DLN  92 90 DX
DP    4  3 DX
ECMR 84 99 2 99 1
EGND 99  0 POLY(2) (3,0) (4,0) 0 .5 .5
EPSR 85 0 POLY(1) (3,4) -300E-6  100E-6
ENSE 89 2 POLY(1) (88,0) 200E-6 1
FB  7 99 POLY(6) VB VC VE VLP VLN VPSR 0 64.80E6 -60E6 60E6 60E6 -60E6 60E6
GA 6  0 11 12 37.32E-6
GCM 0  6 10 99 10.378E-9
GPSR 85 86 85 86 100E-6
GRD1 60 11 60 11 33.93E-6
GRD2 60 12 60 12 33.93E-6
HLIM 90  0 VLIM 1K
HCMR 80 1 POLY(2) VCMP VCMM 0 1E2 1E2
IRP 3 4 28E-6
ISS   3 10 DC 6.000E-6
IIO 2 0 .5E-12
I1 88 0 1E-21
J1   11  89 10 JX
J2   12  80 10 JX
R2    6  9 100.0E3
RCM 84 81 1K
RN1 88 0 1E3
RO1   8  5 80
RO2   7 99 60
RSS  10 99 33.33E6
VAD 60 4 -.5
VCMP 82 99  0.2
VCMM 83 99 -1.5
VB    9  0 DC 0
VC    3 53 DC .6
VE   54  4 DC .6
VLIM  7  8 DC 0
VLP  91  0 DC -.3
VLN 0 92 DC 5.1
VPSR 0 86 DC 0
.MODEL DX D(IS=800.0E-18)
.MODEL JX PJF(IS=500.0E-15 BETA=354.7E-6 VTO=-.04 KF=6.6E-18)
.ENDS
**********
*SRC=TLV2254T5;TLV2254T5;Opamps;TI-"TLVxxx";
*SYM=TIOPAMP
* TLV2254 OPERATIONAL AMPLIFIER "MACROMODEL" SUBCIRCUIT
* (5V MODEL)
* CONNECTIONS:   NON-INVERTING INPUT
*                | INVERTING INPUT
*                | | POSITIVE POWER SUPPLY
*                | | | NEGATIVE POWER SUPPLY
*                | | | | OUTPUT
*                | | | | |
.SUBCKT TLV2254T5  1 2 3 4 5
*
C1   11 12 6.369E-12
C2    6  7 25.00E-12
CSS  10 99 3.182E-12
DC    5 53 DX
DE   54  5 DX
DLP  90 91 DX
DLN  92 90 DX
DP    4  3 DX
EGND 99  0 POLY(2) (3,0) (4,0) 0 .5 .5
FB    7 99 POLY(5) VB VC VE VLP VLN 0 57.62E6 -60E6 60E6 60E6 -60E6
GA    6  0 11 12 26.86E-6
GCM   0  6 10 99 2.686E-9
ISS   3 10 DC 3.100E-6
HLIM 90  0 VLIM 1K
J1   11  2 10 JX
J2   12  1 10 JX
R2    6  9 100.0E3
RD1 60 11 37.23E3
RD2 60 12 37.23E3
RO1   8  5 84
RO2   7 99 84
RP    3  4 71.43E3
RSS  10 99 64.52E6
VAD  60 4 -.5
VB    9  0 DC 0
VC 3 53 DC .605
VE   54  4 DC .605
VLIM  7  8 DC 0
VLP  91  0 DC -.235
VLN 0 92 DC 7.500
.MODEL DX D(IS=800.0E-18)
.MODEL JX PJF(IS=500.0E-15 BETA=139E-6 VTO=-.05)
.ENDS
**********
*SRC=TLV2254T5B;TLV2254T5B;Opamps;TI-"TLVxxx";
*SYM=TIOPAMP
* TLV2254 OPERATIONAL AMPLIFIER "MACROMODEL" SUBCIRCUIT
* REV (N/A) (5V MODEL) LEVEL II
* CONNECTIONS:   NON-INVERTING INPUT
*                | INVERTING INPUT
*                | | POSITIVE POWER SUPPLY
*                | | | NEGATIVE POWER SUPPLY
*                | | | | OUTPUT
*                | | | | |
.SUBCKT TLV2254T5B  1 2 3 4 5
*
C1   11 12 6.369E-12
C2    6  7 25.00E-12
CPSR 85 86  7.96E-9
CSS  10 99 3.182E-12
DCM+ 81 82 DX
DCM- 83 81 DX
DC    5 53 DX
DE   54  5 DX
DLP  90 91 DX
DLN  92 90 DX
DP    4  3 DX
ECMR 84 99 2 99 1
EGND 99  0 POLY(2) (3,0) (4,0) 0 .5 .5
EPSR 85 0 POLY(1) (3,4) -141.3E-6 28.29E-6
ENSE 89 2 POLY(1) (88,0) 200E-6 1
FB 7 99 POLY(6) VB VC VE VLP VLN VPSR 0 57.62E6 -60E6 60E6 60E6 -60E6 60E6
GA    6  0 11 12 26.86E-6
GCM   0  6 10 99 2.686E-9
GPSR 85 86 85 86 100E-6
GRD1 60 11 60 11 26.86E-6
GRD2 60 12 60 12 26.86E-6
HLIM 90  0 VLIM 1K
HCMR 80 1 POLY(2) VCMP VCMM 0 1E2 1E2
IRP 3 4 70E-6
ISS 3 10 DC 3.100E-6
IIO 2 0 .5E-12
I1 88 0 1E-21
J1   11  89 10 JX
J2   12  80 10 JX
R2    6  9 100.0E3
RCM 84 81 1K
RN1 88 0 100
RO1   8  5 84
RO2   7 99 84
RSS  10 99 64.52E6
VAD  60 4 -.5
VCMP 82 99 -0.4
VCMM 83 99 -2.0
VB    9  0 DC 0
VC 3 53 DC .605
VE   54  4 DC .605
VLIM  7  8 DC 0
VLP  91  0 DC -.235
VLN 0 92 DC 7.500
VPSR 0 86 DC 0
.MODEL DX D(IS=800.0E-18)
.MODEL JX PJF(IS=500.0E-15 BETA=139E-6 VTO=-.05 KF=1.6E-18)
.ENDS
**********
*SRC=TLV2262IA;TLV2262IA;Opamps;TI-"TLVxxx";
*SYM=TIOPAMP
* TLV2262 OPERATIONAL AMPLIFIER "MACROMODEL" SUBCIRCUIT
* REV (N/A)   SUPPLY VOLTAGE: 3V
* CONNECTIONS:   NON-INVERTING INPUT
*                | INVERTING INPUT
*                | | POSITIVE POWER SUPPLY
*                | | | NEGATIVE POWER SUPPLY
*                | | | | OUTPUT
*                | | | | |
.SUBCKT TLV2262IA  1 2 3 4 5
*
C1   11 12 5.004E-12
C2    6  7 20.00E-12
DC    5 53 DX
DE   54  5 DX
DLP  90 91 DX
DLN  92 90 DX
DP    4  3 DX
EGND 99  0 POLY(2) (3,0) (4,0) 0 .5 .5
FB 7 99 POLY(5) VB VC VE VLP VLN 0 5.89E6 -10E6 10E6 10E6 -10E6
GA    6  0 11 12 62.83E-6
GCM 0  6 10 99 22.34E-9
ISS   3 10 DC 11.00E-6
HLIM 90  0 VLIM 1K
J1   11  2 10 JX
J2   12  1 10 JX
R2    6  9 100.0E3
RD1 60 11 15.92E3
RD2 60 12 15.92E3
RO1   8  5 135
RO2   7 99 135
RP 3  4 15.87E3
RSS  10 99 18.18E6
VAD  60 4 -.5
VB    9  0 DC 0
VC 3 53 DC .6
VE   54  4 DC .6
VLIM  7  8 DC 0
VLP  91  0 DC 0
VLN 0 92 DC 9.4
.MODEL DX D(IS=800.0E-18)
.MODEL JX PJF(IS=500.0E-15 BETA=717.8E-6 VTO=-.04)
.ENDS
**********
*SRC=TLC2264IA;TLC2264IA;Opamps;TI-"TLCxxx";
*SYM=TIOPAMP
* TLC2264 OPERATIONAL AMPLIFIER "MACROMODEL" SUBCIRCUIT
* REV (N/A)   SUPPLY VOLTAGE: 3V
* CONNECTIONS:   NON-INVERTING INPUT
*                | INVERTING INPUT
*                | | POSITIVE POWER SUPPLY
*                | | | NEGATIVE POWER SUPPLY
*                | | | | OUTPUT
*                | | | | |
.SUBCKT TLC2264IA  1 2 3 4 5
*
C1   11 12 5.004E-12
C2    6  7 20.00E-12
DC    5 53 DX
DE   54  5 DX
DLP  90 91 DX
DLN  92 90 DX
DP    4  3 DX
EGND 99  0 POLY(2) (3,0) (4,0) 0 .5 .5
FB 7 99 POLY(5) VB VC VE VLP VLN 0 5.89E6 -10E6 10E6 10E6 -10E6
GA    6  0 11 12 62.83E-6
GCM 0  6 10 99 22.34E-9
ISS   3 10 DC 11.00E-6
HLIM 90  0 VLIM 1K
J1   11  2 10 JX
J2   12  1 10 JX
R2    6  9 100.0E3
RD1 60 11 15.92E3
RD2 60 12 15.92E3
RO1   8  5 135
RO2   7 99 135
RP 3  4 15.87E3
RSS  10 99 18.18E6
VAD  60 4 -.5
VB    9  0 DC 0
VC 3 53 DC .6