**********
*SRC=TL031T3;TL031T3;Opamps;TI-"TLxxx";+/-15V Supply
*SYM=TIOPAMP
* TL031 Opamp "MACROMODEL" SUBCIRCUIT
* (REV N/A)      SUPPLY VOLTAGE: +/-15V
* CONNECTIONS:   NON-INVERTING INPUT
*                | INVERTING INPUT
*                | | POSITIVE POWER SUPPLY
*                | | | NEGATIVE POWER SUPPLY
*                | | | | OUTPUT
*                | | | | |
.SUBCKT TL031T3  1 2 3 4 5
*
C1   11 12 3.498E-12
C2    6  7 15.00E-12
CSS  10 99 11.38E-12
DC    5 53 DX
DE   54  5 DX
DLP  90 91 DX
DLN  92 90 DX
DP    4  3 DX
EGND 99  0 POLY(2) 3 0 4 0 0 .5 .5
FB    7 99 POLY(5) VB VC VE VLP VLN 0 936.5E3 -900E3 900E3 900E3 -900E3
GA 6  0 11 12 113.1E-6
GCM   0  6 10 99 2.257E-9
ISS   3 10 DC 76.50E-6
HLIM 90  0 VLIM 1K
J1   11  2 10 JX
J2   12  1 10 JX
R2    6  9 100.0E3
RD1   4 11 8.841E3
RD2   4 12 8.841E3
RO1   8  5 135
RO2   7 99 135
RP    3  4 138.5E3
RSS  10 99 2.614E6
VB    9  0 DC 0
VC    3 53 DC 1.700
VE   54  4 DC 1.800
VLIM  7  8 DC 0
VLP  91  0 DC 8
VLN   0 92 DC 8
.MODEL DX D(IS=800.0E-18)
.MODEL JX PJF(IS=1.000E-12 BETA=140E-6 VTO=-1)
.ENDS
**********
*SRC=TL032T3;TL032T3;Opamps;TI-"TLxxx";+/-15V Supply
*SYM=TIOPAMP
* TL032 Opamp "MACROMODEL" SUBCIRCUIT
* (REV N/A)      SUPPLY VOLTAGE: +/-15V
* CONNECTIONS:   NON-INVERTING INPUT
*                | INVERTING INPUT
*                | | POSITIVE POWER SUPPLY
*                | | | NEGATIVE POWER SUPPLY
*                | | | | OUTPUT
*                | | | | |
.SUBCKT TL032T3  1 2 3 4 5
*
C1   11 12 3.498E-12
C2    6  7 15.00E-12
CSS  10 99 11.38E-12
DC    5 53 DX
DE   54  5 DX
DLP  90 91 DX
DLN  92 90 DX
DP    4  3 DX
EGND 99  0 POLY(2) 3 0 4 0 0 .5 .5
FB    7 99 POLY(5) VB VC VE VLP VLN 0 936.5E3 -900E3 900E3 900E3 -900E3
GA 6  0 11 12 113.1E-6
GCM   0  6 10 99 2.257E-9
ISS   3 10 DC 76.50E-6
HLIM 90  0 VLIM 1K
J1   11  2 10 JX
J2   12  1 10 JX
R2    6  9 100.0E3
RD1   4 11 8.841E3
RD2   4 12 8.841E3
RO1   8  5 135
RO2   7 99 135
RP    3  4 138.5E3
RSS  10 99 2.614E6
VB    9  0 DC 0
VC    3 53 DC 1.700
VE   54  4 DC 1.800
VLIM  7  8 DC 0
VLP  91  0 DC 8
VLN   0 92 DC 8
.MODEL DX D(IS=800.0E-18)
.MODEL JX PJF(IS=1.000E-12 BETA=140E-6 VTO=-1)
.ENDS
**********
*SRC=TL034T3;TL034T3;Opamps;TI-"TLxxx";+/-15V Supply
*SYM=TIOPAMP
* TL034 Opamp "MACROMODEL" SUBCIRCUIT
* (REV N/A)      SUPPLY VOLTAGE: +/-15V
* CONNECTIONS:   NON-INVERTING INPUT
*                | INVERTING INPUT
*                | | POSITIVE POWER SUPPLY
*                | | | NEGATIVE POWER SUPPLY
*                | | | | OUTPUT
*                | | | | |
.SUBCKT TL034T3  1 2 3 4 5
*
C1   11 12 3.498E-12
C2    6  7 15.00E-12
CSS  10 99 11.38E-12
DC    5 53 DX
DE   54  5 DX
DLP  90 91 DX
DLN  92 90 DX
DP    4  3 DX
EGND 99  0 POLY(2) 3 0 4 0 0 .5 .5
FB    7 99 POLY(5) VB VC VE VLP VLN 0 936.5E3 -900E3 900E3 900E3 -900E3
GA 6  0 11 12 113.1E-6
GCM   0  6 10 99 2.257E-9
ISS   3 10 DC 76.50E-6
HLIM 90  0 VLIM 1K
J1   11  2 10 JX
J2   12  1 10 JX
R2    6  9 100.0E3
RD1   4 11 8.841E3
RD2   4 12 8.841E3
RO1   8  5 135
RO2   7 99 135
RP    3  4 138.5E3
RSS  10 99 2.614E6
VB    9  0 DC 0
VC    3 53 DC 1.700
VE   54  4 DC 1.800
VLIM  7  8 DC 0
VLP  91  0 DC 8
VLN   0 92 DC 8
.MODEL DX D(IS=800.0E-18)
.MODEL JX PJF(IS=1.000E-12 BETA=140E-6 VTO=-1)
.ENDS
**********
*SRC=TL044CT;TL044CT;Opamps;TI-"TLxxx";
*SYM=TIOPAMP
* TL044C Opamp "MACROMODEL" SUBCIRCUIT
* (REV N/A)      SUPPLY VOLTAGE: +/-15V
* CONNECTIONS:   NON-INVERTING INPUT
*                | INVERTING INPUT
*                | | POSITIVE POWER SUPPLY
*                | | | NEGATIVE POWER SUPPLY
*                | | | | OUTPUT
*                | | | | |
.SUBCKT TL044CT  1 2 3 4 5
*
C1   11 12 3.498E-12
C2    6  7 15.00E-12
DC    5 53 DX
DE   54  5 DX
DLP  90 91 DX
DLN  92 90 DX
DP    4  3 DX
EGND 99  0 POLY(2) 3 0 4 0 0 .5 .5
FB    7 99 POLY(5) VB VC VE VLP VLN 0 1.697E6 -2E6 2E6 2E6 -2E6
GA    6  0 11 12 47.13E-6
GCM   0  6 10 99 6.657E-9
IEE   3 10 DC 7.700E-6
HLIM 90  0 VLIM 1K
Q1   11  2 13 QX
Q2   12  1 14 QX
R2    6  9 100.0E3
RC1   4 11 21.22E3
RC2   4 12 21.22E3
RE1  13 10 13.95E3
RE2  14 10 13.95E3
REE  10 99 25.97E6
RO1   8  5 125
RO2   7 99 125
RP    3  4 245.1E3
VB    9  0 DC 0
VC    3 53 DC 2.600
VE   54  4 DC 2.600
VLIM  7  8 DC 0
VLP  91  0 DC 6
VLN   0 92 DC 6
.MODEL DX D(IS=800.0E-18)
.MODEL QX PNP(IS=800.0E-18 BF=37.50)
.ENDS
**********
*SRC=TL051T3;TL051T3;Opamps;TI-"TLxxx";+/-15V Supply
*SYM=TIOPAMP
* TL051 Opamp "MACROMODEL" SUBCIRCUIT
* (REV N/A)      SUPPLY VOLTAGE: +/-15V
* CONNECTIONS:   NON-INVERTING INPUT
*                | INVERTING INPUT
*                | | POSITIVE POWER SUPPLY
*                | | | NEGATIVE POWER SUPPLY
*                | | | | OUTPUT
*                | | | | |
.SUBCKT TL051T3  1 2 3 4 5
*
C1   11 12 3.988E-12
C2    6  7 15.00E-12
DC    5 53 DX
DE   54  5 DX
DLP  90 91 DX
DLN  92 90 DX
DP    4  3 DX
EGND 99  0 POLY(2) 3 0 4 0 0 .5 .5
FB    7 99 POLY(5) VB VC VE VLP VLN 0 2.875E6 -3E6 3E6 3E6 -3E6
GA 6  0 11 12 292.2E-6
GCM   0  6 10 99 6.542E-9
ISS   3 10 DC 300.0E-6
HLIM 90  0 VLIM 1K
J1   11  2 10 JX
J2   12  1 10 JX
R2 6  9 100.0E3
RD1 4 11 3.422E3
RD2 4 12 3.422E3
RO1 8  5 125
RO2 7 99 125
RP    3  4 11.11E3
RSS  10 99 666.7E3
VB    9  0 DC 0
VC    3 53 DC 3
VE   54  4 DC 3.700
VLIM  7  8 DC 0
VLP  91  0 DC 28
VLN   0 92 DC 28
.MODEL DX D(IS=800.0E-18)
.MODEL JX PJF(IS=15.00E-12 BETA=185.2E-6 VTO=-1)
.ENDS
**********
*SRC=TL052T3;TL052T3;Opamps;TI-"TLxxx";+/-15V Supply
*SYM=TIOPAMP
* TL052 Opamp "MACROMODEL" SUBCIRCUIT
* (REV N/A)      SUPPLY VOLTAGE: +/-15V
* CONNECTIONS:   NON-INVERTING INPUT
*                | INVERTING INPUT
*                | | POSITIVE POWER SUPPLY
*                | | | NEGATIVE POWER SUPPLY
*                | | | | OUTPUT
*                | | | | |
.SUBCKT TL052T3  1 2 3 4 5
*
C1   11 12 3.988E-12
C2    6  7 15.00E-12
DC    5 53 DX
DE   54  5 DX
DLP  90 91 DX
DLN  92 90 DX
DP    4  3 DX
EGND 99  0 POLY(2) 3 0 4 0 0 .5 .5
FB    7 99 POLY(5) VB VC VE VLP VLN 0 2.875E6 -3E6 3E6 3E6 -3E6
GA 6  0 11 12 292.2E-6
GCM   0  6 10 99 6.542E-9
ISS   3 10 DC 300.0E-6
HLIM 90  0 VLIM 1K
J1   11  2 10 JX
J2   12  1 10 JX
R2 6  9 100.0E3
RD1 4 11 3.422E3
RD2 4 12 3.422E3
RO1 8  5 125
RO2 7 99 125
RP    3  4 11.11E3
RSS  10 99 666.7E3
VB    9  0 DC 0
VC    3 53 DC 3
VE   54  4 DC 3.700
VLIM  7  8 DC 0
VLP  91  0 DC 28
VLN   0 92 DC 28
.MODEL DX D(IS=800.0E-18)
.MODEL JX PJF(IS=15.00E-12 BETA=185.2E-6 VTO=-1)
.ENDS
**********
*SRC=TL054T3;TL054T3;Opamps;TI-"TLxxx";+/-15V Supply
*SYM=TIOPAMP
* TL054 Opamp "MACROMODEL" SUBCIRCUIT
* (REV N/A)      SUPPLY VOLTAGE: +/-15V
* CONNECTIONS:   NON-INVERTING INPUT
*                | INVERTING INPUT
*                | | POSITIVE POWER SUPPLY
*                | | | NEGATIVE POWER SUPPLY
*                | | | | OUTPUT
*                | | | | |
.SUBCKT TL054T3  1 2 3 4 5
*
C1   11 12 3.988E-12
C2    6  7 15.00E-12
DC    5 53 DX
DE   54  5 DX
DLP  90 91 DX
DLN  92 90 DX
DP    4  3 DX
EGND 99  0 POLY(2) 3 0 4 0 0 .5 .5
FB    7 99 POLY(5) VB VC VE VLP VLN 0 2.875E6 -3E6 3E6 3E6 -3E6
GA 6  0 11 12 292.2E-6
GCM   0  6 10 99 6.542E-9
ISS   3 10 DC 300.0E-6
HLIM 90  0 VLIM 1K
J1   11  2 10 JX
J2   12  1 10 JX
R2 6  9 100.0E3
RD1 4 11 3.422E3
RD2 4 12 3.422E3
RO1 8  5 125
RO2 7 99 125
RP    3  4 11.11E3
RSS  10 99 666.7E3
VB    9  0 DC 0
VC    3 53 DC 3
VE   54  4 DC 3.700
VLIM  7  8 DC 0
VLP  91  0 DC 28
VLN   0 92 DC 28
.MODEL DX D(IS=800.0E-18)
.MODEL JX PJF(IS=15.00E-12 BETA=185.2E-6 VTO=-1)
.ENDS
**********
*SRC=TL060T;TL060T;Opamps;TI-"TLxxx";w/Compensation
*SYM=TICAMP
* TL060 Opamp "MACROMODEL" SUBCIRCUIT
* (REV N/A)      SUPPLY VOLTAGE: +/-15V
* CONNECTIONS:   NON-INVERTING INPUT
*                | INVERTING INPUT
*                | | POSITIVE POWER SUPPLY
*                | | | NEGATIVE POWER SUPPLY
*                | | | | OUTPUT
*                | | | | |  COMPENSATION
*                | | | | | / \
.SUBCKT TL060T   1 2 3 4 5 6 7
*
C1   11 12 2.332E-12
DC    5 53 DX
DE   54  5 DX
DLP  90 91 DX
DLN  92 90 DX
DP    4  3 DX
EGND 99  0 POLY(2) 3 0 4 0 0 .5 .5
FB    7 99 POLY(5) VB VC VE VLP VLN 0 477.4E3 -500E3 500E3 500E3 -500E3
GA    6  0 11 12 62.84E-6
GCM 0  6 10 99 2.178E-9
ISS   3 10 DC 35.00E-6
HLIM 90  0 VLIM 1K
J1   11  2 10 JX
J2   12  1 10 JX
R2    6  9 100.0E3
RD1   4 11 15.91E3
RD2   4 12 15.91E3
RO1   8  5 200
RO2   7 99 200
RP    3  4 150.0E3
RSS  10 99 5.714E6
VB    9  0 DC 0
VC 3 53 DC 2.130
VE   54  4 DC 2.130
VLIM  7  8 DC 0
VLP  91  0 DC 15
VLN   0 92 DC 15
.MODEL DX D(IS=800.0E-18)
.MODEL JX PJF(IS=15.00E-12 BETA=64E-6 VTO=-1)
.ENDS
**********
*SRC=TL061T;TL061T;Opamps;TI-"TLxxx";
*SYM=TIOPAMP
* TL061 Opamp "MACROMODEL" SUBCIRCUIT
* (REV N/A)      SUPPLY VOLTAGE: +/-15V
* CONNECTIONS:   NON-INVERTING INPUT
*                | INVERTING INPUT
*                | | POSITIVE POWER SUPPLY
*                | | | NEGATIVE POWER SUPPLY
*                | | | | OUTPUT
*                | | | | |
.SUBCKT TL061T   1 2 3 4 5
*
C1   11 12 3.498E-12
C2    6  7 15.00E-12
DC    5 53 DX
DE   54  5 DX
DLP  90 91 DX
DLN  92 90 DX
DP    4  3 DX
EGND 99  0 POLY(2) 3 0 4 0 0 .5 .5
FB    7 99 POLY(5) VB VC VE VLP VLN 0 318.3E3 -300E3 300E3 300E3 -300E3
GA    6  0 11 12 94.26E-6
GCM 0  6 10 99 1.607E-9
ISS   3 10 DC 52.50E-6
HLIM 90  0 VLIM 1K
J1   11  2 10 JX
J2   12  1 10 JX
R2    6  9 100.0E3
RD1   4 11 10.61E3
RD2   4 12 10.61E3
RO1   8  5 200
RO2   7 99 200
RP    3  4 150.0E3
RSS  10 99 3.810E6
VB    9  0 DC 0
VC    3 53 DC 2.200
VE   54  4 DC 2.200
VLIM  7  8 DC 0
VLP  91  0 DC 15
VLN   0 92 DC 15
.MODEL DX D(IS=800.0E-18)
.MODEL JX PJF(IS=15.00E-12 BETA=100.5E-6 VTO=-1)
.ENDS
**********
*SRC=TL062T;TL062T;Opamps;TI-"TLxxx";
*SYM=TIOPAMP
* TL062 Opamp "MACROMODEL" SUBCIRCUIT
* (REV N/A)      SUPPLY VOLTAGE: +/-15V
* CONNECTIONS:   NON-INVERTING INPUT
*                | INVERTING INPUT
*                | | POSITIVE POWER SUPPLY
*                | | | NEGATIVE POWER SUPPLY
*                | | | | OUTPUT
*                | | | | |
.SUBCKT TL062T   1 2 3 4 5
*
C1   11 12 3.498E-12
C2    6  7 15.00E-12
DC    5 53 DX
DE   54  5 DX
DLP  90 91 DX
DLN  92 90 DX
DP    4  3 DX
EGND 99  0 POLY(2) 3 0 4 0 0 .5 .5
FB    7 99 POLY(5) VB VC VE VLP VLN 0 318.3E3 -300E3 300E3 300E3 -300E3
GA    6  0 11 12 94.26E-6
GCM 0  6 10 99 1.607E-9
ISS   3 10 DC 52.50E-6
HLIM 90  0 VLIM 1K
J1   11  2 10 JX
J2   12  1 10 JX
R2    6  9 100.0E3
RD1   4 11 10.61E3
RD2   4 12 10.61E3
RO1   8  5 200
RO2   7 99 200
RP    3  4 150.0E3
RSS  10 99 3.810E6
VB    9  0 DC 0
VC    3 53 DC 2.200
VE   54  4 DC 2.200
VLIM  7  8 DC 0
VLP  91  0 DC 15
VLN   0 92 DC 15
.MODEL DX D(IS=800.0E-18)
.MODEL JX PJF(IS=15.00E-12 BETA=100.5E-6 VTO=-1)
.ENDS
**********
*SRC=TL064T;TL064T;Opamps;TI-"TLxxx";
*SYM=TIOPAMP
* TL064 Opamp "MACROMODEL" SUBCIRCUIT
* (REV N/A)      SUPPLY VOLTAGE: +/-15V
* CONNECTIONS:   NON-INVERTING INPUT
*                | INVERTING INPUT
*                | | POSITIVE POWER SUPPLY
*                | | | NEGATIVE POWER SUPPLY
*                | | | | OUTPUT
*                | | | | |
.SUBCKT TL064T   1 2 3 4 5
*
C1   11 12 3.498E-12
C2    6  7 15.00E-12
DC    5 53 DX
DE   54  5 DX
DLP  90 91 DX
DLN  92 90 DX
DP    4  3 DX
EGND 99  0 POLY(2) 3 0 4 0 0 .5 .5
FB    7 99 POLY(5) VB VC VE VLP VLN 0 318.3E3 -300E3 300E3 300E3 -300E3
GA    6  0 11 12 94.26E-6
GCM 0  6 10 99 1.607E-9
ISS   3 10 DC 52.50E-6
HLIM 90  0 VLIM 1K
J1   11  2 10 JX
J2   12  1 10 JX
R2    6  9 100.0E3
RD1   4 11 10.61E3
RD2   4 12 10.61E3
RO1   8  5 200
RO2   7 99 200
RP    3  4 150.0E3
RSS  10 99 3.810E6
VB    9  0 DC 0
VC    3 53 DC 2.200
VE   54  4 DC 2.200
VLIM  7  8 DC 0
VLP  91  0 DC 15
VLN   0 92 DC 15
.MODEL DX D(IS=800.0E-18)
.MODEL JX PJF(IS=15.00E-12 BETA=100.5E-6 VTO=-1)
.ENDS
**********
*SRC=TL066T;TL066T;Opamps;TI-"TLxxx";
*SYM=TIOPAMP
* TL066 Opamp "MACROMODEL" SUBCIRCUIT
* (REV N/A)      SUPPLY VOLTAGE: +/-15V
* CONNECTIONS:   NON-INVERTING INPUT
*                | INVERTING INPUT
*                | | POSITIVE POWER SUPPLY
*                | | | NEGATIVE POWER SUPPLY
*                | | | | OUTPUT
*                | | | | |
.SUBCKT TL066T   1 2 3 4 5
*
C1   11 12 3.498E-12
C2    6  7 15.00E-12
DC    5 53 DX
DE   54  5 DX
DLP  90 91 DX
DLN  92 90 DX
DP    4  3 DX
EGND 99  0 POLY(2) 3 0 4 0 0 .5 .5
FB 7 99 POLY(5) VB VC VE VLP VLN 0 318.3E3 -300E3 300E3 300E3 -300E3
GA 6  0 11 12 94.26E-6
GCM 0  6 10 99 1.171E-8
ISS   3 10 DC 52.50E-6
HLIM 90  0 VLIM 1K
J1   11  2 10 JX
J2   12  1 10 JX
R2    6  9 100.0E3
RD1 4 11 10.61E3
RD2 4 12 10.61E3
RO1 8  5 200
RO2 7 99 200
RP    3  4 150.0E3
RSS  10 99 3.810E6
VB    9  0 DC 0
VC 3 53 DC 2.200
VE   54  4 DC 2.200
VLIM  7  8 DC 0
VLP  91  0 DC 15
VLN   0 92 DC 15
.MODEL DX D(IS=800.0E-18)
.MODEL JX PJF(IS=15.00E-12 BETA=100.5E-6 VTO=-1)
.ENDS
**********
*SRC=TL070T;TL070T;Opamps;TI-"TLxxx";w/Compensation
*SYM=TICAMP
* TL070 Opamp "MACROMODEL" SUBCIRCUIT
* (REV N/A)      SUPPLY VOLTAGE: +/-15V
* CONNECTIONS:   NON-INVERTING INPUT
*                | INVERTING INPUT
*                | | POSITIVE POWER SUPPLY
*                | | | NEGATIVE POWER SUPPLY
*                | | | | OUTPUT
*                | | | | |  COMPENSATION
*                | | | | | / \
.SUBCKT TL070T   1 2 3 4 5 6 7
*
C1   11 12 5.197E-12
DC    5 53 DX
DE   54  5 DX
DLP  90 91 DX
DLN  92 90 DX
DP    4  3 DX
EGND 99  0 POLY(2) 3 0 4 0 0 .5 .5
FB    7 99 POLY(5) VB VC VE VLP VLN 0 3.929E6 -4E6 4E6 4E6 -4E6
GA 6  0 11 12 361.3E-6
GCM   0  6 10 99 1.908E-9
ISS   3 10 DC 234.0E-6
HLIM 90  0 VLIM 1K
J1   11  2 10 JX
J2   12  1 10 JX
R2    6  9 100.0E3
RD1   4 11 2.947E3
RD2   4 12 2.947E3
RO1   8  5 150
RO2   7 99 150
RP    3  4 21.43E3
RSS  10 99 854.7E3
VB    9  0 DC 0
VC 3 53 DC 2.180
VE   54  4 DC 2.180
VLIM  7  8 DC 0
VLP  91  0 DC 25
VLN   0 92 DC 25
.MODEL DX D(IS=800.0E-18)
.MODEL JX PJF(IS=32.50E-12 BETA=311E-6 VTO=-1)
.ENDS
**********
*SRC=TL071T;TL071T;Opamps;TI-"TLxxx";
*SYM=TIOPAMP
* TL071 Opamp "MACROMODEL" SUBCIRCUIT
* (REV N/A)      SUPPLY VOLTAGE: +/-15V
* CONNECTIONS:   NON-INVERTING INPUT
*                | INVERTING INPUT
*                | | POSITIVE POWER SUPPLY
*                | | | NEGATIVE POWER SUPPLY
*                | | | | OUTPUT
*                | | | | |
.SUBCKT TL071T   1 2 3 4 5
*
C1   11 12 3.498E-12
C2    6  7 15.00E-12
DC    5 53 DX
DE   54  5 DX
DLP  90 91 DX
DLN  92 90 DX
DP    4  3 DX
EGND 99  0 POLY(2) 3 0 4 0 0 .5 .5
FB    7 99 POLY(5) VB VC VE VLP VLN 0 4.715E6 -5E6 5E6 5E6 -5E6
GA    6  0 11 12 282.8E-6
GCM   0  6 10 99 8.942E-9
ISS   3 10 DC 195.0E-6
HLIM 90  0 VLIM 1K
J1   11  2 10 JX
J2   12  1 10 JX
R2    6  9 100.0E3
RD1   4 11 3.536E3
RD2   4 12 3.536E3
RO1   8  5 150
RO2   7 99 150
RP    3  4 2.143E3
RSS  10 99 1.026E6
VB    9  0 DC 0
VC    3 53 DC 2.200
VE   54  4 DC 2.200
VLIM  7  8 DC 0
VLP  91  0 DC 25
VLN   0 92 DC 25
.MODEL DX D(IS=800.0E-18)
.MODEL JX PJF(IS=15.00E-12 BETA=270.1E-6 VTO=-1)
.ENDS
**********
*SRC=TL072T;TL072T;Opamps;TI-"TLxxx";
*SYM=TIOPAMP
* TL072 Opamp "MACROMODEL" SUBCIRCUIT
* (REV N/A)      SUPPLY VOLTAGE: +/-15V
* CONNECTIONS:   NON-INVERTING INPUT
*                | INVERTING INPUT
*                | | POSITIVE POWER SUPPLY
*                | | | NEGATIVE POWER SUPPLY
*                | | | | OUTPUT
*                | | | | |
.SUBCKT TL072T   1 2 3 4 5
*
C1   11 12 3.498E-12
C2    6  7 15.00E-12
DC    5 53 DX
DE   54  5 DX
DLP  90 91 DX
DLN  92 90 DX
DP    4  3 DX
EGND 99  0 POLY(2) 3 0 4 0 0 .5 .5
FB    7 99 POLY(5) VB VC VE VLP VLN 0 4.715E6 -5E6 5E6 5E6 -5E6
GA    6  0 11 12 282.8E-6
GCM   0  6 10 99 8.942E-9
ISS   3 10 DC 195.0E-6
HLIM 90  0 VLIM 1K
J1   11  2 10 JX
J2   12  1 10 JX
R2    6  9 100.0E3
RD1   4 11 3.536E3
RD2   4 12 3.536E3
RO1   8  5 150
RO2   7 99 150
RP    3  4 2.143E3
RSS  10 99 1.026E6
VB    9  0 DC 0
VC    3 53 DC 2.200
VE   54  4 DC 2.200
VLIM  7  8 DC 0
VLP  91  0 DC 25
VLN   0 92 DC 25
.MODEL DX D(IS=800.0E-18)
.MODEL JX PJF(IS=15.00E-12 BETA=270.1E-6 VTO=-1)
.ENDS
**********
*SRC=TL074T;TL074T;Opamps;TI-"TLxxx";
*SYM=TIOPAMP
* TL074 Opamp "MACROMODEL" SUBCIRCUIT
* (REV N/A)      SUPPLY VOLTAGE: +/-15V
* CONNECTIONS:   NON-INVERTING INPUT
*                | INVERTING INPUT
*                | | POSITIVE POWER SUPPLY
*                | | | NEGATIVE POWER SUPPLY
*                | | | | OUTPUT
*                | | | | |
.SUBCKT TL074T   1 2 3 4 5
*
C1   11 12 3.498E-12
C2    6  7 15.00E-12
DC    5 53 DX
DE   54  5 DX
DLP  90 91 DX
DLN  92 90 DX
DP    4  3 DX
EGND 99  0 POLY(2) 3 0 4 0 0 .5 .5
FB    7 99 POLY(5) VB VC VE VLP VLN 0 4.715E6 -5E6 5E6 5E6 -5E6
GA    6  0 11 12 282.8E-6
GCM   0  6 10 99 8.942E-9
ISS   3 10 DC 195.0E-6
HLIM 90  0 VLIM 1K
J1   11  2 10 JX
J2   12  1 10 JX
R2    6  9 100.0E3
RD1   4 11 3.536E3
RD2   4 12 3.536E3
RO1   8  5 150
RO2   7 99 150
RP    3  4 2.143E3
RSS  10 99 1.026E6
VB    9  0 DC 0
VC    3 53 DC 2.200
VE   54  4 DC 2.200
VLIM  7  8 DC 0
VLP  91  0 DC 25
VLN   0 92 DC 25
.MODEL DX D(IS=800.0E-18)
.MODEL JX PJF(IS=15.00E-12 BETA=270.1E-6 VTO=-1)
.ENDS
**********
*SRC=TL075T;TL075T;Opamps;TI-"TLxxx";
*SYM=TIOPAMP
* TL075 Opamp "MACROMODEL" SUBCIRCUIT
* (REV N/A)      SUPPLY VOLTAGE: +/-15V
* CONNECTIONS:   NON-INVERTING INPUT
*                | INVERTING INPUT
*                | | POSITIVE POWER SUPPLY
*                | | | NEGATIVE POWER SUPPLY
*                | | | | OUTPUT
*                | | | | |
.SUBCKT TL075T   1 2 3 4 5
*
C1   11 12 3.498E-12
C2    6  7 15.00E-12
DC    5 53 DX
DE   54  5 DX
DLP  90 91 DX
DLN  92 90 DX
DP    4  3 DX
EGND 99  0 POLY(2) 3 0 4 0 0 .5 .5
FB    7 99 POLY(5) VB VC VE VLP VLN 0 4.715E6 -5E6 5E6 5E6 -5E6
GA    6  0 11 12 282.8E-6
GCM   0  6 10 99 8.942E-9
ISS   3 10 DC 195.0E-6
HLIM 90  0 VLIM 1K
J1   11  2 10 JX
J2   12  1 10 JX
R2    6  9 100.0E3
RD1   4 11 3.536E3
RD2   4 12 3.536E3
RO1   8  5 150
RO2   7 99 150
RP    3  4 2.143E3
RSS  10 99 1.026E6
VB    9  0 DC 0
VC    3 53 DC 2.200
VE   54  4 DC 2.200
VLIM  7  8 DC 0
VLP  91  0 DC 25
VLN   0 92 DC 25
.MODEL DX D(IS=800.0E-18)
.MODEL JX PJF(IS=15.00E-12 BETA=270.1E-6 VTO=-1)
.ENDS
**********
*SRC=TL080T;TL080T;Opamps;TI-"TLxxx";w/Compensation
*SYM=TICAMP
* TL080 Opamp "MACROMODEL" SUBCIRCUIT
* (REV N/A)      SUPPLY VOLTAGE: +/-15V
* CONNECTIONS:   NON-INVERTING INPUT
*                | INVERTING INPUT
*                | | POSITIVE POWER SUPPLY
*                | | | NEGATIVE POWER SUPPLY
*                | | | | OUTPUT
*                | | | | |  COMPENSATION
*                | | | | | / \
.SUBCKT TL080T   1 2 3 4 5 6 7
*
C1   11 12 5.197E-12
DC    5 53 DX
DE   54  5 DX
DLP  90 91 DX
DLN  92 90 DX
DP    4  3 DX
EGND 99  0 POLY(2) 3 0 4 0 0 .5 .5
FB    7 99 POLY(5) VB VC VE VLP VLN 0 3.803E6 -4E6 4E6 4E6 -4E6
GA 6  0 11 12 377.6E-6
GCM   0  6 10 99 9.882E-9
ISS   3 10 DC 234.0E-6
HLIM 90  0 VLIM 1K
J1   11  2 10 JX
J2   12  1 10 JX
R2    6  9 100.0E3
RD1   4 11 2.852E3
RD2   4 12 2.852E3
RO1   8  5 150
RO2   7 99 150
RP    3  4 21.43E3
RSS  10 99 854.7E3
VB    9  0 DC 0
VC 3 53 DC 2.200
VE   54  4 DC 2.200
VLIM  7  8 DC 0
VLP  91  0 DC 25
VLN   0 92 DC 25
.MODEL DX D(IS=800.0E-18)
.MODEL JX PJF(IS=15.00E-12 BETA=332E-6 VTO=-1)
.ENDS
**********
*SRC=TL081T;TL081T;Opamps;TI-"TLxxx";
*SYM=TIOPAMP
* TL081 Opamp "MACROMODEL" SUBCIRCUIT
* (REV N/A)      SUPPLY VOLTAGE: +/-15V
* CONNECTIONS:   NON-INVERTING INPUT
*                | INVERTING INPUT
*                | | POSITIVE POWER SUPPLY
*                | | | NEGATIVE POWER SUPPLY
*                | | | | OUTPUT
*                | | | | |
.SUBCKT TL081T   1 2 3 4 5
*
C1   11 12 3.498E-12
C2    6  7 15.00E-12
DC    5 53 DX
DE   54  5 DX
DLP  90 91 DX
DLN  92 90 DX
DP    4  3 DX
EGND 99  0 POLY(2) 3 0 4 0 0 .5 .5
FB    7 99 POLY(5) VB VC VE VLP VLN 0 4.715E6 -5E6 5E6 5E6 -5E6
GA    6  0 11 12 282.8E-6
GCM   0  6 10 99 8.942E-9
ISS   3 10 DC 195.0E-6
HLIM 90  0 VLIM 1K
J1   11  2 10 JX
J2   12  1 10 JX
R2    6  9 100.0E3
RD1   4 11 3.536E3
RD2   4 12 3.536E3
RO1   8  5 150
RO2   7 99 150
RP    3  4 2.143E3
RSS  10 99 1.026E6
VB    9  0 DC 0
VC    3 53 DC 2.200
VE   54  4 DC 2.200
VLIM  7  8 DC 0
VLP  91  0 DC 25
VLN   0 92 DC 25
.MODEL DX D(IS=800.0E-18)
.MODEL JX PJF(IS=15.00E-12 BETA=270.1E-6 VTO=-1)
.ENDS
**********
*SRC=TL082T;TL082T;Opamps;TI-"TLxxx";
*SYM=TIOPAMP
* TL082 Opamp "MACROMODEL" SUBCIRCUIT
* (REV N/A)      SUPPLY VOLTAGE: +/-15V
* CONNECTIONS:   NON-INVERTING INPUT
*                | INVERTING INPUT
*                | | POSITIVE POWER SUPPLY
*                | | | NEGATIVE POWER SUPPLY
*                | | | | OUTPUT
*                | | | | |
.SUBCKT TL082T   1 2 3 4 5
*
C1   11 12 3.498E-12
C2    6  7 15.00E-12
DC    5 53 DX
DE   54  5 DX
DLP  90 91 DX
DLN  92 90 DX
DP    4  3 DX
EGND 99  0 POLY(2) 3 0 4 0 0 .5 .5
FB    7 99 POLY(5) VB VC VE VLP VLN 0 4.715E6 -5E6 5E6 5E6 -5E6
GA    6  0 11 12 282.8E-6
GCM   0  6 10 99 8.942E-9
ISS   3 10 DC 195.0E-6
HLIM 90  0 VLIM 1K
J1   11  2 10 JX
J2   12  1 10 JX
R2    6  9 100.0E3
RD1   4 11 3.536E3
RD2   4 12 3.536E3
RO1   8  5 150
RO2   7 99 150
RP    3  4 2.143E3
RSS  10 99 1.026E6
VB    9  0 DC 0
VC    3 53 DC 2.200
VE   54  4 DC 2.200
VLIM  7  8 DC 0
VLP  91  0 DC 25
VLN   0 92 DC 25
.MODEL DX D(IS=800.0E-18)
.MODEL JX PJF(IS=15.00E-12 BETA=270.1E-6 VTO=-1)
.ENDS
**********
*SRC=TL083T;TL083T;Opamps;TI-"TLxxx";
*SYM=TIOPAMP
* TL083 Opamp "MACROMODEL" SUBCIRCUIT
* (REV N/A)      SUPPLY VOLTAGE: +/-15V
* CONNECTIONS:   NON-INVERTING INPUT
*                | INVERTING INPUT
*                | | POSITIVE POWER SUPPLY
*                | | | NEGATIVE POWER SUPPLY
*                | | | | OUTPUT
*                | | | | |
.SUBCKT TL083T   1 2 3 4 5
*
C1   11 12 3.498E-12
C2    6  7 15.00E-12
DC    5 53 DX
DE   54  5 DX
DLP  90 91 DX
DLN  92 90 DX
DP    4  3 DX
EGND 99  0 POLY(2) 3 0 4 0 0 .5 .5
FB    7 99 POLY(5) VB VC VE VLP VLN 0 4.715E6 -5E6 5E6 5E6 -5E6
GA    6  0 11 12 282.8E-6
GCM   0  6 10 99 8.942E-9
ISS   3 10 DC 195.0E-6
HLIM 90  0 VLIM 1K
J1   11  2 10 JX
J2   12  1 10 JX
R2    6  9 100.0E3
RD1   4 11 3.536E3
RD2   4 12 3.536E3
RO1   8  5 150
RO2   7 99 150
RP    3  4 2.143E3
RSS  10 99 1.026E6
VB    9  0 DC 0
VC    3 53 DC 2.200
VE   54  4 DC 2.200
VLIM  7  8 DC 0
VLP  91  0 DC 25
VLN   0 92 DC 25
.MODEL DX D(IS=800.0E-18)
.MODEL JX PJF(IS=15.00E-12 BETA=270.1E-6 VTO=-1)
.ENDS
**********
*SRC=TL084T;TL084T;Opamps;TI-"TLxxx";
*SYM=TIOPAMP
* TL084 Opamp "MACROMODEL" SUBCIRCUIT
* (REV N/A)      SUPPLY VOLTAGE: +/-15V
* CONNECTIONS:   NON-INVERTING INPUT
*                | INVERTING INPUT
*                | | POSITIVE POWER SUPPLY
*                | | | NEGATIVE POWER SUPPLY
*                | | | | OUTPUT
*                | | | | |
.SUBCKT TL084T   1 2 3 4 5
*
C1   11 12 3.498E-12
C2    6  7 15.00E-12
DC    5 53 DX
DE   54  5 DX
DLP  90 91 DX
DLN  92 90 DX
DP    4  3 DX
EGND 99  0 POLY(2) 3 0 4 0 0 .5 .5
FB    7 99 POLY(5) VB VC VE VLP VLN 0 4.715E6 -5E6 5E6 5E6 -5E6
GA    6  0 11 12 282.8E-6
GCM   0  6 10 99 8.942E-9
ISS   3 10 DC 195.0E-6
HLIM 90  0 VLIM 1K
J1   11  2 10 JX
J2   12  1 10 JX
R2    6  9 100.0E3
RD1   4 11 3.536E3
RD2   4 12 3.536E3
RO1   8  5 150
RO2   7 99 150
RP    3  4 2.143E3
RSS  10 99 1.026E6
VB    9  0 DC 0
VC    3 53 DC 2.200
VE   54  4 DC 2.200
VLIM  7  8 DC 0
VLP  91  0 DC 25
VLN   0 92 DC 25
.MODEL DX D(IS=800.0E-18)
.MODEL JX PJF(IS=15.00E-12 BETA=270.1E-6 VTO=-1)
.ENDS
**********
*SRC=TL085T;TL085T;Opamps;TI-"TLxxx";
*SYM=TIOPAMP
* TL085 Opamp "MACROMODEL" SUBCIRCUIT
* (REV N/A)      SUPPLY VOLTAGE: +/-15V
* CONNECTIONS:   NON-INVERTING INPUT
*                | INVERTING INPUT
*                | | POSITIVE POWER SUPPLY
*                | | | NEGATIVE POWER SUPPLY
*                | | | | OUTPUT
*                | | | | |
.SUBCKT TL085T   1 2 3 4 5
*
C1   11 12 3.498E-12
C2    6  7 15.00E-12
DC    5 53 DX
DE   54  5 DX
DLP  90 91 DX
DLN  92 90 DX
DP    4  3 DX
EGND 99  0 POLY(2) 3 0 4 0 0 .5 .5
FB    7 99 POLY(5) VB VC VE VLP VLN 0 4.715E6 -5E6 5E6 5E6 -5E6
GA    6  0 11 12 282.8E-6
GCM   0  6 10 99 8.942E-9
ISS   3 10 DC 195.0E-6
HLIM 90  0 VLIM 1K
J1   11  2 10 JX
J2   12  1 10 JX
R2    6  9 100.0E3
RD1   4 11 3.536E3
RD2   4 12 3.536E3
RO1   8  5 150
RO2   7 99 150
RP    3  4 2.143E3
RSS  10 99 1.026E6
VB    9  0 DC 0
VC    3 53 DC 2.200
VE   54  4 DC 2.200
VLIM  7  8 DC 0
VLP  91  0 DC 25
VLN   0 92 DC 25
.MODEL DX D(IS=800.0E-18)
.MODEL JX PJF(IS=15.00E-12 BETA=270.1E-6 VTO=-1)
.ENDS
**********
*SRC=TL087T;TL087T;Opamps;TI-"TLxxx";
*SYM=TIOPAMP
* TL087 Opamp "MACROMODEL" SUBCIRCUIT
* (REV N/A)      SUPPLY VOLTAGE: +/-15V
* CONNECTIONS:   NON-INVERTING INPUT
*                | INVERTING INPUT
*                | | POSITIVE POWER SUPPLY
*                | | | NEGATIVE POWER SUPPLY
*                | | | | OUTPUT
*                | | | | |
.SUBCKT TL087T   1 2 3 4 5
*
C1   11 12 3.887E-12
C2 6  7 12.00E-12
DC    5 53 DX
DE   54  5 DX
DLP  90 91 DX
DLN  92 90 DX
DP    4  3 DX
EGND 99  0 POLY(2) 3 0 4 0 0 .5 .5
FB    7 99 POLY(5) VB VC VE VLP VLN 0 6.189E6 -6E6 6E6 6E6 -6E6
GA    6  0 11 12 282.8E-6
GCM   0  6 10 99 3.560E-9
ISS   3 10 DC 270.0E-6
HLIM 90  0 VLIM 1K
J1   11  2 10 JX
J2   12  1 10 JX
R2    6  9 100.0E3
RD1   4 11 3.536E3
RD2   4 12 3.536E3
RO1   8  5 60
RO2   7 99 60
RP    3  4 11.54E3
RSS  10 99 740.7E3
VB    9  0 DC 0
VC    3 53 DC 2.200
VE   54  4 DC 2.200
VLIM  7  8 DC 0
VLP  91  0 DC 30
VLN   0 92 DC 30
.MODEL DX D(IS=800.0E-18)
.MODEL JX PJF(IS=15.00E-12 BETA=165.3E-6 VTO=-1)
.ENDS
**********
*SRC=TL088T;TL088T;Opamps;TI-"TLxxx";
*SYM=TIOPAMP
* TL088 Opamp "MACROMODEL" SUBCIRCUIT
* (REV N/A)      SUPPLY VOLTAGE: +/-15V
* CONNECTIONS:   NON-INVERTING INPUT
*                | INVERTING INPUT
*                | | POSITIVE POWER SUPPLY
*                | | | NEGATIVE POWER SUPPLY
*                | | | | OUTPUT
*                | | | | |
.SUBCKT TL088T   1 2 3 4 5
*
C1   11 12 3.887E-12
C2 6  7 12.00E-12
DC    5 53 DX
DE   54  5 DX
DLP  90 91 DX
DLN  92 90 DX
DP    4  3 DX
EGND 99  0 POLY(2) 3 0 4 0 0 .5 .5
FB    7 99 POLY(5) VB VC VE VLP VLN 0 6.189E6 -6E6 6E6 6E6 -6E6
GA    6  0 11 12 282.8E-6
GCM   0  6 10 99 3.560E-9
ISS   3 10 DC 270.0E-6
HLIM 90  0 VLIM 1K
J1   11  2 10 JX
J2   12  1 10 JX
R2    6  9 100.0E3
RD1   4 11 3.536E3
RD2   4 12 3.536E3
RO1   8  5 60
RO2   7 99 60
RP    3  4 11.54E3
RSS  10 99 740.7E3
VB    9  0 DC 0
VC    3 53 DC 2.200
VE   54  4 DC 2.200
VLIM  7  8 DC 0
VLP  91  0 DC 30
VLN   0 92 DC 30
.MODEL DX D(IS=800.0E-18)
.MODEL JX PJF(IS=15.00E-12 BETA=165.3E-6 VTO=-1)
.ENDS
**********
*SRC=TL136T;TL136T;Opamps;TI-"TLxxx";
*SYM=TIOPAMP
* TL136 Opamp "MACROMODEL" SUBCIRCUIT
* REV (A)        SUPPLY VOLTAGE: +/-15V
* REVISED TO ADJUST INPUT BIAS CURRENT
* CONNECTIONS:   NON-INVERTING INPUT
*                | INVERTING INPUT
*                | | POSITIVE POWER SUPPLY
*                | | | NEGATIVE POWER SUPPLY
*                | | | | OUTPUT
*                | | | | |
.SUBCKT TL136T   1 2 3 4 5
*
C1   11 12 3.460E-12
C2    6  7 20.00E-12
DC    5 53 DX
DE   54  5 DX
DLP  90 91 DX
DLN  92 90 DX
DP    4  3 DX
EGND 99  0 POLY(2) 3 0 4 0 0 .5 .5
FB 7 99 POLY(5) VB VC VE VLP VLN 0 6.96E6 -4E6 4E6 4E6 -4E6
GA    6  0 11 12 377.0E-6
GCM   0  6 10 99 11.92E-9
IEE   3 10 DC 40.08E-6
HLIM 90  0 VLIM 1K
Q1   11  2 13 QX
Q2   12  1 14 QX
R2    6  9 100.0E3
RC1   4 11 2.653E3
RC2   4 12 2.653E3
RE1  13 10 1.357E3
RE2  14 10 1.357E3
REE  10 99 4.990E6
RO1   8  5 125
RO2   7 99 125
RP    3  4 24.79E3
VB    9  0 DC 0
VC    3 53 DC 2.700
VE   54  4 DC 2.700
VLIM  7  8 DC 0
VLP  91  0 DC 25
VLN   0 92 DC 25
.MODEL DX D(IS=800.0E-18)
.MODEL QX PNP(IS=800.0E-18 BF=500)
.ENDS
**********
*SRC=TL287T;TL287T;Opamps;TI-"TLxxx";
*SYM=TIOPAMP
* TL287 Opamp "MACROMODEL" SUBCIRCUIT
* (REV N/A)      SUPPLY VOLTAGE: +/-15V
* CONNECTIONS:   NON-INVERTING INPUT
*                | INVERTING INPUT
*                | | POSITIVE POWER SUPPLY
*                | | | NEGATIVE POWER SUPPLY
*                | | | | OUTPUT
*                | | | | |
.SUBCKT TL287T   1 2 3 4 5
*
C1   11 12 3.887E-12
C2 6  7 12.00E-12
DC    5 53 DX
DE   54  5 DX
DLP  90 91 DX
DLN  92 90 DX
DP    4  3 DX
EGND 99  0 POLY(2) 3 0 4 0 0 .5 .5
FB    7 99 POLY(5) VB VC VE VLP VLN 0 6.189E6 -6E6 6E6 6E6 -6E6
GA    6  0 11 12 282.8E-6
GCM   0  6 10 99 3.560E-9
ISS   3 10 DC 270.0E-6
HLIM 90  0 VLIM 1K
J1   11  2 10 JX
J2   12  1 10 JX
R2    6  9 100.0E3
RD1   4 11 3.536E3
RD2   4 12 3.536E3
RO1   8  5 60
RO2   7 99 60
RP    3  4 11.54E3
RSS  10 99 740.7E3
VB    9  0 DC 0
VC    3 53 DC 2.200
VE   54  4 DC 2.200
VLIM  7  8 DC 0
VLP  91  0 DC 30
VLN   0 92 DC 30
.MODEL DX D(IS=800.0E-18)
.MODEL JX PJF(IS=15.00E-12 BETA=165.3E-6 VTO=-1)
.ENDS
**********
*SRC=TL288T;TL288T;Opamps;TI-"TLxxx";
*SYM=TIOPAMP
* TL288 Opamp "MACROMODEL" SUBCIRCUIT
* (REV N/A)      SUPPLY VOLTAGE: +/-15V
* CONNECTIONS:   NON-INVERTING INPUT
*                | INVERTING INPUT
*                | | POSITIVE POWER SUPPLY
*                | | | NEGATIVE POWER SUPPLY
*                | | | | OUTPUT
*                | | | | |
.SUBCKT TL288T   1 2 3 4 5
*
C1   11 12 3.887E-12
C2 6  7 12.00E-12
DC    5 53 DX
DE   54  5 DX
DLP  90 91 DX
DLN  92 90 DX
DP    4  3 DX
EGND 99  0 POLY(2) 3 0 4 0 0 .5 .5
FB    7 99 POLY(5) VB VC VE VLP VLN 0 6.189E6 -6E6 6E6 6E6 -6E6
GA    6  0 11 12 282.8E-6
GCM   0  6 10 99 3.560E-9
ISS   3 10 DC 270.0E-6
HLIM 90  0 VLIM 1K
J1   11  2 10 JX
J2   12  1 10 JX
R2    6  9 100.0E3
RD1   4 11 3.536E3
RD2   4 12 3.536E3
RO1   8  5 60
RO2   7 99 60
RP    3  4 11.54E3
RSS  10 99 740.7E3
VB    9  0 DC 0
VC    3 53 DC 2.200
VE   54  4 DC 2.200
VLIM  7  8 DC 0
VLP  91  0 DC 30
VLN   0 92 DC 30
.MODEL DX D(IS=800.0E-18)
.MODEL JX PJF(IS=15.00E-12 BETA=165.3E-6 VTO=-1)
.ENDS
**********
*SRC=TL322T3;TL322T3;Opamps;TI-"TLxxx";+/-15V Supply
*SYM=TIOPAMP
* TL322 Opamp "MACROMODEL" SUBCIRCUIT
* (REV N/A)      SUPPLY VOLTAGE: +/-15V
* CONNECTIONS:   NON-INVERTING INPUT
*                | INVERTING INPUT
*                | | POSITIVE POWER SUPPLY
*                | | | NEGATIVE POWER SUPPLY
*                | | | | OUTPUT
*                | | | | |
.SUBCKT TL322T3  1 2 3 4 5
*
C1   11 12 7.544E-12
C2    6  7 20.00E-12
DC    5 53 DX
DE   54  5 DX
DLP  90 91 DX
DLN  92 90 DX
DP    4  3 DX
EGND 99  0 POLY(2) 3 0 4 0 0 .5 .5
FB    7 99 POLY(5) VB VC VE VLP VLN 0 42.44E6 -40E6 40E6 40E6 -40E6