**********
*SRC=LT1016T;LT1016T;Comparators;Texas Inst.;
*SYM=TIOPAMP6
* LT1016 VOLTAGE COMPARATOR "MACROMODEL" SUBCIRCUIT
* REV (N/A)
* NOTE: COMPONENTS ADDED TO MACROMODEL TO SIMULATE ACTIVE PULL-UP AND
* COMPLEMENTARY OUTPUTS
*
* CONNECTIONS:   NON-INVERTING INPUT
*                | INVERTING INPUT
*                | | POSITIVE POWER SUPPLY
*                | | | NEGATIVE POWER SUPPLY
*                | | | | Q OUTPUT
*                | | | | | GROUND
*                | | | | | | Q NOT OUTPUT
*                | | | | | | |
.SUBCKT LT1016T  1 2 3 4 5 6 21
*
F1    3  9 V1 1
IEE   7  4 DC 100.0E-6
EVO 20 0 POLY(1) 3 0 -1.4 1
*ADDED OUTPUT SUPPLY
R1 20 5  33
*ADDED PULL-UP RESISTOR
R2 21 0  1MEG
*ADDED RESISTOR
EOUT 21 0 POLY(1) 20 5 .2 1
*ADDED COMPLEMENTARY OUTPUT
Q1    9  2  7 QIN
Q2    8  1  7 QIN
Q3    9  8  3 QMO
Q4    8  8  3 QMI
.MODEL QIN NPN(IS=800.0E-18 BF=10)
.MODEL QMI PNP(IS=800.0E-18 BF=1002)
.MODEL QMO PNP(IS=800.0E-18 BF=1000 CJC=1E-15 TR=6.211E-9)
E1   10  6  3  9  1
V1   10 11 DC 0
Q5    5 11  6 QOC
.MODEL QOC NPN(IS=800.0E-18 BF=53.30E3 CJC=1E-15 TF=154.3E-15 TR=4.192E-9)
DP    4  3 DX
RP    3  4 2.041E3
RP1 3  6 167
*ADDED POWER RESISTOR
.MODEL DX  D(IS=800.0E-18)
*
.ENDS
**********
*SRC=LM111T;LM111T;Comparators;Texas Inst.;
*SYM=TICOMP2
* LM111 VOLTAGE COMPARATOR "MACROMODEL" SUBCIRCUIT
* REV (N/A)
* CONNECTIONS:   NON-INVERTING INPUT
*                | INVERTING INPUT
*                | | POSITIVE POWER SUPPLY
*                | | | NEGATIVE POWER SUPPLY
*                | | | | OPEN COLLECTOR OUTPUT
*                | | | | | OUTPUT GROUND
*                | | | | | |
.SUBCKT LM111T   1 2 3 4 5 6
*
F1    9  3 V1 1
IEE   3  7 DC 100.0E-6
VI1  21  1 DC .45
VI2  22  2 DC .45
Q1    9 21  7 QIN
Q2    8 22  7 QIN
Q3    9  8  4 QMO
Q4    8  8  4 QMI
.MODEL QIN PNP(IS=800.0E-18 BF=666.7)
.MODEL QMI NPN(IS=800.0E-18 BF=1002)
.MODEL QMO NPN(IS=800.0E-18 BF=1000 CJC=1E-15 TR=102.5E-9)
E1   10  6  9  4  1
V1   10 11 DC 0
Q5    5 11  6 QOC
.MODEL QOC NPN(IS=800.0E-18 BF=103.5E3 CJC=1E-15 TF=11.60E-12 TR=48.19E-9)
DP    4  3 DX
RP    3  4 6.667E3
.MODEL DX  D(IS=800.0E-18)
*
.ENDS
**********
*SRC=LM211T;LM211T;Comparators;Texas Inst.;
*SYM=TICOMP2
* LM211 VOLTAGE COMPARATOR "MACROMODEL" SUBCIRCUIT
* REV (N/A)
* CONNECTIONS:   NON-INVERTING INPUT
*                | INVERTING INPUT
*                | | POSITIVE POWER SUPPLY
*                | | | NEGATIVE POWER SUPPLY
*                | | | | OPEN COLLECTOR OUTPUT
*                | | | | | OUTPUT GROUND
*                | | | | | |
.SUBCKT LM211T   1 2 3 4 5 6
*
F1    9  3 V1 1
IEE   3  7 DC 100.0E-6
VI1  21  1 DC .45
VI2  22  2 DC .45
Q1    9 21  7 QIN
Q2    8 22  7 QIN
Q3    9  8  4 QMO
Q4    8  8  4 QMI
.MODEL QIN PNP(IS=800.0E-18 BF=666.7)
.MODEL QMI NPN(IS=800.0E-18 BF=1002)
.MODEL QMO NPN(IS=800.0E-18 BF=1000 CJC=1E-15 TR=102.5E-9)
E1   10  6  9  4  1
V1   10 11 DC 0
Q5    5 11  6 QOC
.MODEL QOC NPN(IS=800.0E-18 BF=103.5E3 CJC=1E-15 TF=11.60E-12 TR=48.19E-9)
DP    4  3 DX
RP    3  4 6.667E3
.MODEL DX  D(IS=800.0E-18)
*
.ENDS
**********
*SRC=LM311T;LM311T;Comparators;Texas Inst.;
*SYM=TICOMP2
* LM311 VOLTAGE COMPARATOR "MACROMODEL" SUBCIRCUIT
* REV (N/A)
* CONNECTIONS:   NON-INVERTING INPUT
*                | INVERTING INPUT
*                | | POSITIVE POWER SUPPLY
*                | | | NEGATIVE POWER SUPPLY
*                | | | | OPEN COLLECTOR OUTPUT
*                | | | | | OUTPUT GROUND
*                | | | | | |
.SUBCKT LM311T   1 2 3 4 5 6
*
F1    9  3 V1 1
IEE   3  7 DC 100.0E-6
VI1  21  1 DC .45
VI2  22  2 DC .45
Q1    9 21  7 QIN
Q2    8 22  7 QIN
Q3    9  8  4 QMO
Q4    8  8  4 QMI
.MODEL QIN PNP(IS=800.0E-18 BF=500)
.MODEL QMI NPN(IS=800.0E-18 BF=1002)
.MODEL QMO NPN(IS=800.0E-18 BF=1000 CJC=1E-15 TR=102.5E-9)
E1   10  6  9  4  1
V1   10 11 DC 0
Q5    5 11  6 QOC
.MODEL QOC NPN(IS=800.0E-18 BF=103.5E3 CJC=1E-15 TF=11.60E-12 TR=48.19E-9)
DP    4  3 DX
RP    3  4 6.667E3
.MODEL DX  D(IS=800.0E-18)
*
.ENDS
**********
*SYM=TICOMP2
* LP111 VOLTAGE COMPARATOR "MACROMODEL" SUBCIRCUIT
* REV (N/A)
* CONNECTIONS:   NON-INVERTING INPUT
*                | INVERTING INPUT
*                | | POSITIVE POWER SUPPLY
*                | | | NEGATIVE POWER SUPPLY
*                | | | | OPEN COLLECTOR OUTPUT
*                | | | | | OUTPUT GROUND
*                | | | | | |
.SUBCKT LP111P   1 2 3 4 5 6
*
F1    9  3 V1 1
IEE   3  7 DC 100.0E-6
VI1  21  1 DC .45
VI2  22  2 DC .45
Q1    9 21  7 QIN
Q2    8 22  7 QIN
Q3    9  8  4 QMO
Q4    8  8  4 QMI
.MODEL QIN PNP(IS=800.0E-18 BF=3.333E3)
.MODEL QMI NPN(IS=800.0E-18 BF=1002)
.MODEL QMO NPN(IS=800.0E-18 BF=1000 CJC=1E-15 TR=745.3E-9)
E1   10  6  9  4  1
V1   10 11 DC 0
Q5    5 11  6 QOC
.MODEL QOC NPN(IS=800.0E-18 BF=10.35E3 CJC=1E-15 TF=10.38E-12 TR=503.0E-9)
DP    4  3 DX
RP 3  4 600E3
.MODEL DX  D(IS=800.0E-18)
*
.ENDS
**********
*SRC=LP211T;LP211T;Comparators;Texas Inst.;
*SYM=TICOMP2
* LP211 VOLTAGE COMPARATOR "MACROMODEL" SUBCIRCUIT
* REV (N/A)
* CONNECTIONS:   NON-INVERTING INPUT
*                | INVERTING INPUT
*                | | POSITIVE POWER SUPPLY
*                | | | NEGATIVE POWER SUPPLY
*                | | | | OPEN COLLECTOR OUTPUT
*                | | | | | OUTPUT GROUND
*                | | | | | |
.SUBCKT LP211T   1 2 3 4 5 6
*
F1    9  3 V1 1
IEE   3  7 DC 100.0E-6
VI1  21  1 DC .45
VI2  22  2 DC .45
Q1    9 21  7 QIN
Q2    8 22  7 QIN
Q3    9  8  4 QMO
Q4    8  8  4 QMI
.MODEL QIN PNP(IS=800.0E-18 BF=3.333E3)
.MODEL QMI NPN(IS=800.0E-18 BF=1002)
.MODEL QMO NPN(IS=800.0E-18 BF=1000 CJC=1E-15 TR=745.3E-9)
E1   10  6  9  4  1
V1   10 11 DC 0
Q5    5 11  6 QOC
.MODEL QOC NPN(IS=800.0E-18 BF=10.35E3 CJC=1E-15 TF=10.38E-12 TR=503.0E-9)
DP    4  3 DX
RP 3  4 600E3
.MODEL DX  D(IS=800.0E-18)
*
.ENDS
**********
*SRC=LP311T;LP311T;Comparators;Texas Inst.;
*SYM=TICOMP2
* LP311 VOLTAGE COMPARATOR "MACROMODEL" SUBCIRCUIT
* REV (N/A)
* CONNECTIONS:   NON-INVERTING INPUT
*                | INVERTING INPUT
*                | | POSITIVE POWER SUPPLY
*                | | | NEGATIVE POWER SUPPLY
*                | | | | OPEN COLLECTOR OUTPUT
*                | | | | | OUTPUT GROUND
*                | | | | | |
.SUBCKT LP311T   1 2 3 4 5 6
*
F1    9  3 V1 1
IEE   3  7 DC 100.0E-6
VI1  21  1 DC .45
VI2  22  2 DC .45
Q1    9 21  7 QIN
Q2    8 22  7 QIN
Q3    9  8  4 QMO
Q4    8  8  4 QMI
.MODEL QIN PNP(IS=800.0E-18 BF=3.333E3)
.MODEL QMI NPN(IS=800.0E-18 BF=1002)
.MODEL QMO NPN(IS=800.0E-18 BF=1000 CJC=1E-15 TR=745.3E-9)
E1   10  6  9  4  1
V1   10 11 DC 0
Q5    5 11  6 QOC
.MODEL QOC NPN(IS=800.0E-18 BF=10.35E3 CJC=1E-15 TF=10.38E-12 TR=503.0E-9)
DP    4  3 DX
RP 3  4 600E3
.MODEL DX  D(IS=800.0E-18)
*
.ENDS
**********
*SRC=LT1011T;LT1011T;Comparators;Texas Inst.;
*SYM=TICOMP2
* LT1011 VOLTAGE COMPARATOR "MACROMODEL" SUBCIRCUIT
* REV (N/A)
* CONNECTIONS:   NON-INVERTING INPUT
*                | INVERTING INPUT
*                | | POSITIVE POWER SUPPLY
*                | | | NEGATIVE POWER SUPPLY
*                | | | | OPEN COLLECTOR OUTPUT
*                | | | | | OUTPUT GROUND
*                | | | | | |
.SUBCKT LT1011T  1 2 3 4 5 6
*
F1    9  3 V1 1
IEE   3  7 DC 100.0E-6
VI1  21  1 DC .25
VI2  22  2 DC .25
Q1    9 21  7 QIN
Q2    8 22  7 QIN
Q3    9  8  4 QMO
Q4    8  8  4 QMI
.MODEL QIN PNP(IS=800.0E-18 BF=2.000E3)
.MODEL QMI NPN(IS=800.0E-18 BF=1002)
.MODEL QMO NPN(IS=800.0E-18 BF=1000 CJC=1E-15 TR=93.16E-9)
E1   10  6  9  4  1
V1   10 11 DC 0
Q5    5 11  6 QOC
.MODEL QOC NPN(IS=800.0E-18 BF=310.4E3 CJC=1E-15 TF=46.25E-12 TR=62.82E-9)
DP    4  3 DX
RP    3  4 1.613E3
.MODEL DX  D(IS=800.0E-18)
*
.ENDS
**********
*SRC=LT1011A;LT1011A;Comparators;Texas Inst.;
*SYM=TICOMP2
* LT1011A VOLTAGE COMPARATOR "MACROMODEL" SUBCIRCUIT
* REV (N/A)
* CONNECTIONS:   NON-INVERTING INPUT
*                | INVERTING INPUT
*                | | POSITIVE POWER SUPPLY
*                | | | NEGATIVE POWER SUPPLY
*                | | | | OPEN COLLECTOR OUTPUT
*                | | | | | OUTPUT GROUND
*                | | | | | |
.SUBCKT LT1011A  1 2 3 4 5 6
*
F1    9  3 V1 1
IEE   3  7 DC 100.0E-6
VI1  21  1 DC .25
VI2  22  2 DC .25
Q1    9 21  7 QIN
Q2    8 22  7 QIN
Q3    9  8  4 QMO
Q4    8  8  4 QMI
.MODEL QIN PNP(IS=800.0E-18 BF=2.000E3)
.MODEL QMI NPN(IS=800.0E-18 BF=1002)
.MODEL QMO NPN(IS=800.0E-18 BF=1000 CJC=1E-15 TR=93.16E-9)
E1   10  6  9  4  1
V1   10 11 DC 0
Q5    5 11  6 QOC
.MODEL QOC NPN(IS=800.0E-18 BF=310.4E3 CJC=1E-15 TF=46.25E-12 TR=62.82E-9)
DP    4  3 DX
RP    3  4 1.613E3
.MODEL DX  D(IS=800.0E-18)
*
.ENDS
**********
*SRC=LM139T;LM139T;Comparators;Texas Inst.;
*SYM=TICOMP1
* LM139 VOLTAGE COMPARATOR "MACROMODEL" SUBCIRCUIT
* REV (N/A)
* CONNECTIONS:   NON-INVERTING INPUT
*                | INVERTING INPUT
*                | | POSITIVE POWER SUPPLY
*                | | | NEGATIVE POWER SUPPLY
*                | | | | OPEN COLLECTOR OUTPUT
*                | | | | |
.SUBCKT LM139T   1 2 3 4 5
*
F1    9  3 V1 1
IEE   3  7 DC 100.0E-6
VI1  21  1 DC .75
VI2  22  2 DC .75
Q1    9 21  7 QIN
Q2    8 22  7 QIN
Q3    9  8  4 QMO
Q4    8  8  4 QMI
.MODEL QIN PNP(IS=800.0E-18 BF=2.000E3)
.MODEL QMI NPN(IS=800.0E-18 BF=1002)
.MODEL QMO NPN(IS=800.0E-18 BF=1000 CJC=1E-15 TR=807.4E-9)
E1   10  4  9  4  1
V1   10 11 DC 0
Q5    5 11  4 QOC
.MODEL QOC NPN(IS=800.0E-18 BF=20.29E3 CJC=1E-15 TF=942.6E-12 TR=543.8E-9)
DP    4  3 DX
RP 3  4 46.3E3
.MODEL DX  D(IS=800.0E-18)
*
.ENDS
**********
*SRC=LM139AT;LM139AT;Comparators;Texas Inst.;
*SYM=TICOMP1
* LM139A VOLTAGE COMPARATOR "MACROMODEL" SUBCIRCUIT
* REV (N/A)
* CONNECTIONS:   NON-INVERTING INPUT
*                | INVERTING INPUT
*                | | POSITIVE POWER SUPPLY
*                | | | NEGATIVE POWER SUPPLY
*                | | | | OPEN COLLECTOR OUTPUT
*                | | | | |
.SUBCKT LM139AT  1 2 3 4 5
*
F1    9  3 V1 1
IEE   3  7 DC 100.0E-6
VI1  21  1 DC .75
VI2  22  2 DC .75
Q1    9 21  7 QIN
Q2    8 22  7 QIN
Q3    9  8  4 QMO
Q4    8  8  4 QMI
.MODEL QIN PNP(IS=800.0E-18 BF=2.000E3)
.MODEL QMI NPN(IS=800.0E-18 BF=1002)
.MODEL QMO NPN(IS=800.0E-18 BF=1000 CJC=1E-15 TR=807.4E-9)
E1   10  4  9  4  1
V1   10 11 DC 0
Q5    5 11  4 QOC
.MODEL QOC NPN(IS=800.0E-18 BF=20.29E3 CJC=1E-15 TF=942.6E-12 TR=543.8E-9)
DP    4  3 DX
RP 3  4 46.3E3
.MODEL DX  D(IS=800.0E-18)
*
.ENDS
**********
*SRC=LM193T;LM193T;Comparators;Texas Inst.;
*SYM=TICOMP1
* LM193 VOLTAGE COMPARATOR "MACROMODEL" SUBCIRCUIT
* REV (N/A)
* CONNECTIONS:   NON-INVERTING INPUT
*                | INVERTING INPUT
*                | | POSITIVE POWER SUPPLY
*                | | | NEGATIVE POWER SUPPLY
*                | | | | OPEN COLLECTOR OUTPUT
*                | | | | |
.SUBCKT LM193T   1 2 3 4 5
*
F1    9  3 V1 1
IEE   3  7 DC 100.0E-6
VI1  21  1 DC .75
VI2  22  2 DC .75
Q1    9 21  7 QIN
Q2    8 22  7 QIN
Q3    9  8  4 QMO
Q4    8  8  4 QMI
.MODEL QIN PNP(IS=800.0E-18 BF=2.000E3)
.MODEL QMI NPN(IS=800.0E-18 BF=1002)
.MODEL QMO NPN(IS=800.0E-18 BF=1000 CJC=1E-15 TR=807.4E-9)
E1   10  4  9  4  1
V1   10 11 DC 0
Q5    5 11  4 QOC
.MODEL QOC NPN(IS=800.0E-18 BF=20.29E3 CJC=1E-15 TF=942.6E-12 TR=543.8E-9)
DP    4  3 DX
RP 3  4 46.3E3
.MODEL DX  D(IS=800.0E-18)
*
.ENDS
**********
*SRC=LM239T;LM239T;Comparators;Texas Inst.;
*SYM=TICOMP1
* LM239 VOLTAGE COMPARATOR "MACROMODEL" SUBCIRCUIT
* REV (N/A)
* CONNECTIONS:   NON-INVERTING INPUT
*                | INVERTING INPUT
*                | | POSITIVE POWER SUPPLY
*                | | | NEGATIVE POWER SUPPLY
*                | | | | OPEN COLLECTOR OUTPUT
*                | | | | |
.SUBCKT LM239T   1 2 3 4 5
*
F1    9  3 V1 1
IEE   3  7 DC 100.0E-6
VI1  21  1 DC .75
VI2  22  2 DC .75
Q1    9 21  7 QIN
Q2    8 22  7 QIN
Q3    9  8  4 QMO
Q4    8  8  4 QMI
.MODEL QIN PNP(IS=800.0E-18 BF=2.000E3)
.MODEL QMI NPN(IS=800.0E-18 BF=1002)
.MODEL QMO NPN(IS=800.0E-18 BF=1000 CJC=1E-15 TR=807.4E-9)
E1   10  4  9  4  1
V1   10 11 DC 0
Q5    5 11  4 QOC
.MODEL QOC NPN(IS=800.0E-18 BF=20.29E3 CJC=1E-15 TF=942.6E-12 TR=543.8E-9)
DP    4  3 DX
RP 3  4 46.3E3
.MODEL DX  D(IS=800.0E-18)
*
.ENDS
**********
*SRC=LM239AT;LM239AT;Comparators;Texas Inst.;
*SYM=TICOMP1
* LM239A VOLTAGE COMPARATOR "MACROMODEL" SUBCIRCUIT
* REV (N/A)
* CONNECTIONS:   NON-INVERTING INPUT
*                | INVERTING INPUT
*                | | POSITIVE POWER SUPPLY
*                | | | NEGATIVE POWER SUPPLY
*                | | | | OPEN COLLECTOR OUTPUT
*                | | | | |
.SUBCKT LM239AT  1 2 3 4 5
*
F1    9  3 V1 1
IEE   3  7 DC 100.0E-6
VI1  21  1 DC .75
VI2  22  2 DC .75
Q1    9 21  7 QIN
Q2    8 22  7 QIN
Q3    9  8  4 QMO
Q4    8  8  4 QMI
.MODEL QIN PNP(IS=800.0E-18 BF=2.000E3)
.MODEL QMI NPN(IS=800.0E-18 BF=1002)
.MODEL QMO NPN(IS=800.0E-18 BF=1000 CJC=1E-15 TR=807.4E-9)
E1   10  4  9  4  1
V1   10 11 DC 0
Q5    5 11  4 QOC
.MODEL QOC NPN(IS=800.0E-18 BF=20.29E3 CJC=1E-15 TF=942.6E-12 TR=543.8E-9)
DP    4  3 DX
RP 3  4 46.3E3
.MODEL DX  D(IS=800.0E-18)
*
.ENDS
**********
*SRC=LM2901T;LM2901T;Comparators;Texas Inst.;
*SYM=TICOMP1
* LM2901 VOLTAGE COMPARATOR "MACROMODEL" SUBCIRCUIT
* REV (N/A)
* CONNECTIONS:   NON-INVERTING INPUT
*                | INVERTING INPUT
*                | | POSITIVE POWER SUPPLY
*                | | | NEGATIVE POWER SUPPLY
*                | | | | OPEN COLLECTOR OUTPUT
*                | | | | |
.SUBCKT LM2901T  1 2 3 4 5
*
F1    9  3 V1 1
IEE   3  7 DC 100.0E-6
VI1  21  1 DC .75
VI2  22  2 DC .75
Q1    9 21  7 QIN
Q2    8 22  7 QIN
Q3    9  8  4 QMO
Q4    8  8  4 QMI
.MODEL QIN PNP(IS=800.0E-18 BF=2.000E3)
.MODEL QMI NPN(IS=800.0E-18 BF=1002)
.MODEL QMO NPN(IS=800.0E-18 BF=1000 CJC=1E-15 TR=807.4E-9)
E1   10  4  9  4  1
V1   10 11 DC 0
Q5    5 11  4 QOC
.MODEL QOC NPN(IS=800.0E-18 BF=3.378E3 CJC=1E-15 TF=930.2E-12 TR=543.8E-9)
DP    4  3 DX
RP    3  4 50.00E3
.MODEL DX  D(IS=800.0E-18)
*
.ENDS
**********
*SRC=LM2903T;LM2903T;Comparators;Texas Inst.;
*SYM=TICOMP1
* LM2903 VOLTAGE COMPARATOR "MACROMODEL" SUBCIRCUIT
* REV (N/A)
* CONNECTIONS:   NON-INVERTING INPUT
*                | INVERTING INPUT
*                | | POSITIVE POWER SUPPLY
*                | | | NEGATIVE POWER SUPPLY
*                | | | | OPEN COLLECTOR OUTPUT
*                | | | | |
.SUBCKT LM2903T  1 2 3 4 5
*
F1    9  3 V1 1
IEE   3  7 DC 100.0E-6
VI1  21  1 DC .75
VI2  22  2 DC .75
Q1    9 21  7 QIN
Q2    8 22  7 QIN
Q3    9  8  4 QMO
Q4    8  8  4 QMI
.MODEL QIN PNP(IS=800.0E-18 BF=2.000E3)
.MODEL QMI NPN(IS=800.0E-18 BF=1002)
.MODEL QMO NPN(IS=800.0E-18 BF=1000 CJC=1E-15 TR=807.4E-9)
E1   10  4  9  4  1
V1   10 11 DC 0
Q5    5 11  4 QOC
.MODEL QOC NPN(IS=800.0E-18 BF=3.378E3 CJC=1E-15 TF=930.2E-12 TR=543.8E-9)
DP    4  3 DX
RP    3  4 50.00E3
.MODEL DX  D(IS=800.0E-18)
*
.ENDS
**********
*SRC=LM293T;LM293T;Comparators;Texas Inst.;
*SYM=TICOMP1
* LM293 VOLTAGE COMPARATOR "MACROMODEL" SUBCIRCUIT
* REV (N/A)
* CONNECTIONS:   NON-INVERTING INPUT
*                | INVERTING INPUT
*                | | POSITIVE POWER SUPPLY
*                | | | NEGATIVE POWER SUPPLY
*                | | | | OPEN COLLECTOR OUTPUT
*                | | | | |
.SUBCKT LM293T   1 2 3 4 5
*
F1    9  3 V1 1
IEE   3  7 DC 100.0E-6
VI1  21  1 DC .75
VI2  22  2 DC .75
Q1    9 21  7 QIN
Q2    8 22  7 QIN
Q3    9  8  4 QMO
Q4    8  8  4 QMI
.MODEL QIN PNP(IS=800.0E-18 BF=2.000E3)
.MODEL QMI NPN(IS=800.0E-18 BF=1002)
.MODEL QMO NPN(IS=800.0E-18 BF=1000 CJC=1E-15 TR=807.4E-9)
E1   10  4  9  4  1
V1   10 11 DC 0
Q5    5 11  4 QOC
.MODEL QOC NPN(IS=800.0E-18 BF=20.29E3 CJC=1E-15 TF=942.6E-12 TR=543.8E-9)
DP    4  3 DX
RP 3  4 46.3E3
.MODEL DX  D(IS=800.0E-18)
*
.ENDS
**********
*SRC=LM293AT;LM293AT;Comparators;Texas Inst.;
*SYM=TICOMP1
* LM293A VOLTAGE COMPARATOR "MACROMODEL" SUBCIRCUIT
* REV (N/A)
* CONNECTIONS:   NON-INVERTING INPUT
*                | INVERTING INPUT
*                | | POSITIVE POWER SUPPLY
*                | | | NEGATIVE POWER SUPPLY
*                | | | | OPEN COLLECTOR OUTPUT
*                | | | | |
.SUBCKT LM293AT  1 2 3 4 5
*
F1    9  3 V1 1
IEE   3  7 DC 100.0E-6
VI1  21  1 DC .75
VI2  22  2 DC .75
Q1    9 21  7 QIN
Q2    8 22  7 QIN
Q3    9  8  4 QMO
Q4    8  8  4 QMI
.MODEL QIN PNP(IS=800.0E-18 BF=2.000E3)
.MODEL QMI NPN(IS=800.0E-18 BF=1002)
.MODEL QMO NPN(IS=800.0E-18 BF=1000 CJC=1E-15 TR=807.4E-9)
E1   10  4  9  4  1
V1   10 11 DC 0
Q5    5 11  4 QOC
.MODEL QOC NPN(IS=800.0E-18 BF=20.29E3 CJC=1E-15 TF=942.6E-12 TR=543.8E-9)
DP    4  3 DX
RP 3  4 46.3E3
.MODEL DX  D(IS=800.0E-18)
*
.ENDS
**********
*SRC=LM3302T;LM3302T;Comparators;Texas Inst.;
*SYM=TICOMP1
* LM3302 VOLTAGE COMPARATOR "MACROMODEL" SUBCIRCUIT
* REV (N/A)
* CONNECTIONS:   NON-INVERTING INPUT
*                | INVERTING INPUT
*                | | POSITIVE POWER SUPPLY
*                | | | NEGATIVE POWER SUPPLY
*                | | | | OPEN COLLECTOR OUTPUT
*                | | | | |
.SUBCKT LM3302T  1 2 3 4 5
*
F1    9  3 V1 1
IEE   3  7 DC 100.0E-6
VI1  21  1 DC .75
VI2  22  2 DC .75
Q1    9 21  7 QIN
Q2    8 22  7 QIN
Q3    9  8  4 QMO
Q4    8  8  4 QMI
.MODEL QIN PNP(IS=800.0E-18 BF=2.000E3)
.MODEL QMI NPN(IS=800.0E-18 BF=1002)
.MODEL QMO NPN(IS=800.0E-18 BF=1000 CJC=1E-15 TR=807.4E-9)
E1   10  4  9  4  1
V1   10 11 DC 0
Q5    5 11  4 QOC
.MODEL QOC NPN(IS=800.0E-18 BF=1.014E3 CJC=1E-15 TF=894.9E-12 TR=543.8E-9)
DP    4  3 DX
RP 3  4 46.3E3
.MODEL DX  D(IS=800.0E-18)
*
.ENDS
**********
*SRC=LM339T;LM339T;Comparators;Texas Inst.;
*SYM=TICOMP1
* LM339 VOLTAGE COMPARATOR "MACROMODEL" SUBCIRCUIT
* REV (N/A)
* CONNECTIONS:   NON-INVERTING INPUT
*                | INVERTING INPUT
*                | | POSITIVE POWER SUPPLY
*                | | | NEGATIVE POWER SUPPLY
*                | | | | OPEN COLLECTOR OUTPUT
*                | | | | |
.SUBCKT LM339T   1 2 3 4 5
*
F1    9  3 V1 1
IEE   3  7 DC 100.0E-6
VI1  21  1 DC .75
VI2  22  2 DC .75
Q1    9 21  7 QIN
Q2    8 22  7 QIN
Q3    9  8  4 QMO
Q4    8  8  4 QMI
.MODEL QIN PNP(IS=800.0E-18 BF=2.000E3)
.MODEL QMI NPN(IS=800.0E-18 BF=1002)
.MODEL QMO NPN(IS=800.0E-18 BF=1000 CJC=1E-15 TR=807.4E-9)
E1   10  4  9  4  1
V1   10 11 DC 0
Q5    5 11  4 QOC
.MODEL QOC NPN(IS=800.0E-18 BF=20.29E3 CJC=1E-15 TF=942.6E-12 TR=543.8E-9)
DP    4  3 DX
RP 3  4 46.3E3
.MODEL DX  D(IS=800.0E-18)
*
.ENDS
**********
*SRC=LM339AT;LM339AT;Comparators;Texas Inst.;
*SYM=TICOMP1
* LM339A VOLTAGE COMPARATOR "MACROMODEL" SUBCIRCUIT
* REV (N/A)
* CONNECTIONS:   NON-INVERTING INPUT
*                | INVERTING INPUT
*                | | POSITIVE POWER SUPPLY
*                | | | NEGATIVE POWER SUPPLY
*                | | | | OPEN COLLECTOR OUTPUT
*                | | | | |
.SUBCKT LM339AT  1 2 3 4 5
*
F1    9  3 V1 1
IEE   3  7 DC 100.0E-6
VI1  21  1 DC .75
VI2  22  2 DC .75
Q1    9 21  7 QIN
Q2    8 22  7 QIN
Q3    9  8  4 QMO
Q4    8  8  4 QMI
.MODEL QIN PNP(IS=800.0E-18 BF=2.000E3)
.MODEL QMI NPN(IS=800.0E-18 BF=1002)
.MODEL QMO NPN(IS=800.0E-18 BF=1000 CJC=1E-15 TR=807.4E-9)
E1   10  4  9  4  1
V1   10 11 DC 0
Q5    5 11  4 QOC
.MODEL QOC NPN(IS=800.0E-18 BF=20.29E3 CJC=1E-15 TF=942.6E-12 TR=543.8E-9)
DP    4  3 DX
RP 3  4 46.3E3
.MODEL DX  D(IS=800.0E-18)
*
.ENDS
**********
*SRC=LM393T;LM393T;Comparators;Texas Inst.;
*SYM=TICOMP1
* LM393 VOLTAGE COMPARATOR "MACROMODEL" SUBCIRCUIT
* REV (N/A)
* CONNECTIONS:   NON-INVERTING INPUT
*                | INVERTING INPUT
*                | | POSITIVE POWER SUPPLY
*                | | | NEGATIVE POWER SUPPLY
*                | | | | OPEN COLLECTOR OUTPUT
*                | | | | |
.SUBCKT LM393T   1 2 3 4 5
*
F1    9  3 V1 1
IEE   3  7 DC 100.0E-6
VI1  21  1 DC .75
VI2  22  2 DC .75
Q1    9 21  7 QIN
Q2    8 22  7 QIN
Q3    9  8  4 QMO
Q4    8  8  4 QMI
.MODEL QIN PNP(IS=800.0E-18 BF=2.000E3)
.MODEL QMI NPN(IS=800.0E-18 BF=1002)
.MODEL QMO NPN(IS=800.0E-18 BF=1000 CJC=1E-15 TR=807.4E-9)
E1   10  4  9  4  1
V1   10 11 DC 0
Q5    5 11  4 QOC
.MODEL QOC NPN(IS=800.0E-18 BF=20.29E3 CJC=1E-15 TF=942.6E-12 TR=543.8E-9)
DP    4  3 DX
RP 3  4 46.3E3
.MODEL DX  D(IS=800.0E-18)
*
.ENDS
**********
*SRC=LM393AT;LM393AT;Comparators;Texas Inst.;
*SYM=TICOMP1
* LM393A VOLTAGE COMPARATOR "MACROMODEL" SUBCIRCUIT
* REV (N/A)
* CONNECTIONS:   NON-INVERTING INPUT
*                | INVERTING INPUT
*                | | POSITIVE POWER SUPPLY
*                | | | NEGATIVE POWER SUPPLY
*                | | | | OPEN COLLECTOR OUTPUT
*                | | | | |
.SUBCKT LM393AT  1 2 3 4 5
*
F1    9  3 V1 1
IEE   3  7 DC 100.0E-6
VI1  21  1 DC .75
VI2  22  2 DC .75
Q1    9 21  7 QIN
Q2    8 22  7 QIN
Q3    9  8  4 QMO
Q4    8  8  4 QMI
.MODEL QIN PNP(IS=800.0E-18 BF=2.000E3)
.MODEL QMI NPN(IS=800.0E-18 BF=1002)
.MODEL QMO NPN(IS=800.0E-18 BF=1000 CJC=1E-15 TR=807.4E-9)
E1   10  4  9  4  1
V1   10 11 DC 0
Q5    5 11  4 QOC
.MODEL QOC NPN(IS=800.0E-18 BF=20.29E3 CJC=1E-15 TF=942.6E-12 TR=543.8E-9)
DP    4  3 DX
RP 3  4 46.3E3
.MODEL DX  D(IS=800.0E-18)
*
.ENDS
**********
*SRC=LP239T;LP239T;Comparators;Texas Inst.;
*SYM=TICOMP1
* LP239 VOLTAGE COMPARATOR "MACROMODEL" SUBCIRCUIT
* REV (N/A)
* CONNECTIONS:   NON-INVERTING INPUT
*                | INVERTING INPUT
*                | | POSITIVE POWER SUPPLY
*                | | | NEGATIVE POWER SUPPLY
*                | | | | OPEN COLLECTOR OUTPUT
*                | | | | |
.SUBCKT LP239T   1 2 3 4 5
*
F1    9  3 V1 1
IEE   3  7 DC 100.0E-6
VI1  21  1 DC .75
VI2  22  2 DC .75
Q1    9 21  7 QIN
Q2    8 22  7 QIN
Q3    9  8  4 QMO
Q4    8  8  4 QMI
.MODEL QIN PNP(IS=800.0E-18 BF=20.00E3)
.MODEL QMI NPN(IS=800.0E-18 BF=1002)
.MODEL QMO NPN(IS=800.0E-18 BF=1000 CJC=1E-15 TR=4.968E-6)
E1   10  4  9  4  1
V1   10 11 DC 0
Q5    5 11  4 QOC
.MODEL QOC NPN(IS=800.0E-18 BF=16.84E3 CJC=1E-15 TF=2.826E-9 TR=3.350E-6)
DP    4  3 DX
RP 3  4 -77E3
.MODEL DX  D(IS=800.0E-18)
*
.ENDS
**********
*SRC=LP2901T;LP2901T;Comparators;Texas Inst.;
*SYM=TICOMP1
* LP2901 VOLTAGE COMPARATOR "MACROMODEL" SUBCIRCUIT
* REV (N/A)
* CONNECTIONS:   NON-INVERTING INPUT
*                | INVERTING INPUT
*                | | POSITIVE POWER SUPPLY
*                | | | NEGATIVE POWER SUPPLY
*                | | | | OPEN COLLECTOR OUTPUT
*                | | | | |
.SUBCKT LP2901T  1 2 3 4 5
*
F1    9  3 V1 1
IEE   3  7 DC 100.0E-6
VI1  21  1 DC .75
VI2  22  2 DC .75
Q1    9 21  7 QIN
Q2    8 22  7 QIN
Q3    9  8  4 QMO
Q4    8  8  4 QMI
.MODEL QIN PNP(IS=800.0E-18 BF=20.00E3)
.MODEL QMI NPN(IS=800.0E-18 BF=1002)
.MODEL QMO NPN(IS=800.0E-18 BF=1000 CJC=1E-15 TR=4.968E-6)
E1   10  4  9  4  1
V1   10 11 DC 0
Q5    5 11  4 QOC
.MODEL QOC NPN(IS=800.0E-18 BF=16.84E3 CJC=1E-15 TF=2.826E-9 TR=3.350E-6)
DP    4  3 DX
RP 3  4 -77E3
.MODEL DX  D(IS=800.0E-18)
*
.ENDS
**********
*SRC=LP339T;LP339T;Comparators;Texas Inst.;
*SYM=TICOMP1
* LP339 VOLTAGE COMPARATOR "MACROMODEL" SUBCIRCUIT
* REV (N/A)
* CONNECTIONS:   NON-INVERTING INPUT
*                | INVERTING INPUT
*                | | POSITIVE POWER SUPPLY
*                | | | NEGATIVE POWER SUPPLY
*                | | | | OPEN COLLECTOR OUTPUT
*                | | | | |
.SUBCKT LP339T   1 2 3 4 5
*
F1    9  3 V1 1
IEE   3  7 DC 100.0E-6
VI1  21  1 DC .75
VI2  22  2 DC .75
Q1    9 21  7 QIN
Q2    8 22  7 QIN
Q3    9  8  4 QMO
Q4    8  8  4 QMI
.MODEL QIN PNP(IS=800.0E-18 BF=20.00E3)
.MODEL QMI NPN(IS=800.0E-18 BF=1002)
.MODEL QMO NPN(IS=800.0E-18 BF=1000 CJC=1E-15 TR=4.968E-6)
E1   10  4  9  4  1
V1   10 11 DC 0
Q5    5 11  4 QOC
.MODEL QOC NPN(IS=800.0E-18 BF=16.84E3 CJC=1E-15 TF=2.826E-9 TR=3.350E-6)
DP    4  3 DX
RP 3  4 -77E3
.MODEL DX  D(IS=800.0E-18)
*
.ENDS
**********
*SRC=TL331T;TL331T;Comparators;Texas Inst.;
*SYM=TICOMP1
* TL331 VOLTAGE COMPARATOR "MACROMODEL" SUBCIRCUIT
* REV (N/A)
* CONNECTIONS:   NON-INVERTING INPUT
*                | INVERTING INPUT
*                | | POSITIVE POWER SUPPLY
*                | | | NEGATIVE POWER SUPPLY
*                | | | | OPEN COLLECTOR OUTPUT
*                | | | | |
.SUBCKT TL331T   1 2 3 4 5
*
F1    9  3 V1 1
IEE   3  7 DC 100.0E-6
VI1  21  1 DC .75
VI2  22  2 DC .75
Q1    9 21  7 QIN
Q2    8 22  7 QIN
Q3    9  8  4 QMO
Q4    8  8  4 QMI
.MODEL QIN PNP(IS=800.0E-18 BF=2.000E3)
.MODEL QMI NPN(IS=800.0E-18 BF=1002)
.MODEL QMO NPN(IS=800.0E-18 BF=1000 CJC=1E-15 TR=807.4E-9)
E1   10  4  9  4  1
V1   10 11 DC 0
Q5    5 11  4 QOC
.MODEL QOC NPN(IS=800.0E-18 BF=6.765E3 CJC=1E-15 TF=937.6E-12 TR=543.8E-9)
DP    4  3 DX
RP    3  4 12.50E3
.MODEL DX  D(IS=800.0E-18)
*
.ENDS
**********
*SRC=TLC339T;TLC339T;Comparators;Texas Inst.;
*SYM=TICOMP1
* TLC339 VOLTAGE COMPARATOR "MACROMODEL" SUBCIRCUIT
* REV (N/A)
* CONNECTIONS:   NON-INVERTING INPUT
*                | INVERTING INPUT
*                | | POSITIVE POWER SUPPLY
*                | | | NEGATIVE POWER SUPPLY
*                | | | | OPEN COLLECTOR OUTPUT
*                | | | | |
.SUBCKT TLC339T  1 2 3 4 5
*
F1    9  3 V1 1
IEE   3  7 DC 100.0E-6
VI1  21  1 DC .75
VI2  22  2 DC .75
Q1    9 21  7 QIN
Q2    8 22  7 QIN
Q3    9  8  4 QMO
Q4    8  8  4 QMI
.MODEL QIN PNP(IS=800.0E-18 BF=10.00E6)
.MODEL QMI NPN(IS=800.0E-18 BF=1002)
.MODEL QMO NPN(IS=800.0E-18 BF=1000 CJC=1E-15 TR=1.304E-6)
E1   10  4  9  4  1
V1   10 11 DC 0
Q5    5 11  4 QOC
.MODEL QOC NPN(IS=800.0E-18 BF=324.6 CJC=1E-15 TF=780.9E-12 TR=1.047E-6)
DP    4  3 DX
RP 3  4 -71E3
.MODEL DX  D(IS=800.0E-18)
*
.ENDS
**********
*SRC=TLC352T;TLC352T;Comparators;Texas Inst.;
*SYM=TICOMP1
* TLC352 VOLTAGE COMPARATOR "MACROMODEL" SUBCIRCUIT
* REV (N/A)
* CONNECTIONS:   NON-INVERTING INPUT
*                | INVERTING INPUT
*                | | POSITIVE POWER SUPPLY
*                | | | NEGATIVE POWER SUPPLY
*                | | | | OPEN COLLECTOR OUTPUT
*                | | | | |
.SUBCKT TLC352T  1 2 3 4 5
*
F1    9  3 V1 1
IEE   3  7 DC 100.0E-6
VI1  21  1 DC .75
VI2  22  2 DC .75
Q1    9 21  7 QIN
Q2    8 22  7 QIN
Q3    9  8  4 QMO
Q4    8  8  4 QMI
.MODEL QIN PNP(IS=800.0E-18 BF=10.00E6)
.MODEL QMI NPN(IS=800.0E-18 BF=1002)
.MODEL QMO NPN(IS=800.0E-18 BF=1000 CJC=1E-15 TR=403.7E-9)
E1   10  4  9  4  1
V1   10 11 DC 0
Q5    5 11  4 QOC
.MODEL QOC NPN(IS=800.0E-18 BF=507.1 CJC=1E-15 TF=842.6E-12 TR=271.4E-9)
DP    4  3 DX
RP 3  4 -105E3
.MODEL DX  D(IS=800.0E-18)
*
.ENDS
**********
*SRC=TLC354T;TLC354T;Comparators;Texas Inst.;
*SYM=TICOMP1
* TLC354 VOLTAGE COMPARATOR "MACROMODEL" SUBCIRCUIT
* REV (N/A)
* CONNECTIONS:   NON-INVERTING INPUT
*                | INVERTING INPUT
*                | | POSITIVE POWER SUPPLY
*                | | | NEGATIVE POWER SUPPLY
*                | | | | OPEN COLLECTOR OUTPUT
*                | | | | |
.SUBCKT TLC354T  1 2 3 4 5
*
F1    9  3 V1 1
IEE   3  7 DC 100.0E-6
VI1  21  1 DC .75
VI2  22  2 DC .75
Q1    9 21  7 QIN
Q2    8 22  7 QIN
Q3    9  8  4 QMO
Q4    8  8  4 QMI
.MODEL QIN PNP(IS=800.0E-18 BF=10.00E6)
.MODEL QMI NPN(IS=800.0E-18 BF=1002)
.MODEL QMO NPN(IS=800.0E-18 BF=1000 CJC=1E-15 TR=403.7E-9)
E1   10  4  9  4  1
V1   10 11 DC 0
Q5    5 11  4 QOC
.MODEL QOC NPN(IS=800.0E-18 BF=507.1 CJC=1E-15 TF=842.6E-12 TR=271.4E-9)
DP    4  3 DX
RP 3  4 -105E3
.MODEL DX  D(IS=800.0E-18)
.ENDS
**********
*SRC=TLC3702T;TLC3702T;Comparators;Texas Inst.;
*SYM=TICOMP1
* TLC3702 VOLTAGE COMPARATOR "MACROMODEL" SUBCIRCUIT
* REV (N/A)
* NOTE: COMPONENTS ADDED TO SIMULATE ACTIVE PULL-UP
* CONNECTIONS:   NON-INVERTING INPUT
*                | INVERTING INPUT
*                | | POSITIVE POWER SUPPLY
*                | | | NEGATIVE POWER SUPPLY
*                | | | | OUTPUT
*                | | | | |
.SUBCKT TLC3702T 1 2 3 4 5
*
F1    9  3 V1 1
FOUT 30 5 POLY(1) (V1) 4E-3 -40
*THESE COMPONENTS
EO1 30 0 POLY(1) 3 0 -.75 1
*ADDED TO SIMULATE
DO1 5  30  DX
*ACTIVE PULL-UP
IEE   3  7 DC 100.0E-6
VI1  21  1 DC .75
VI2  22  2 DC .75
Q1    9 21  7 QIN
Q2    8 22  7 QIN
Q3    9  8  4 QMO
Q4    8  8  4 QMI
.MODEL QIN PNP(IS=800.0E-18 BF=10.00E6)
.MODEL QMI NPN(IS=800.0E-18 BF=1002)
.MODEL QMO NPN(IS=800.0E-18 BF=1000 CJC=1E-15 TR=807.4E-9)
E1   10  4  9  4  1
V1   10 11 DC 0
Q5    5 11  4 QOC
.MODEL QOC NPN(IS=800.0E-18 BF=1.810E3 CJC=1E-15 TF=1.357E-9 TR=1.129E-6)
DP    4  3 DX
RP 3  4 -70E3
.MODEL DX  D(IS=800.0E-18)
*
.ENDS
**********
*SRC=TLC3704T;TLC3704T;Comparators;Texas Inst.;
*SYM=TICOMP1
* TLC3704 VOLTAGE COMPARATOR "MACROMODEL" SUBCIRCUIT
* REV (N/A)
* NOTE: COMPONENTS ADDED TO SIMULATE ACTIVE PULL-UP
* CONNECTIONS:   NON-INVERTING INPUT
*                | INVERTING INPUT
*                | | POSITIVE POWER SUPPLY
*                | | | NEGATIVE POWER SUPPLY
*                | | | | OPEN COLLECTOR OUTPUT
*                | | | | |
.SUBCKT TLC3704T 1 2 3 4 5
*
F1    9  3 V1 1
FOUT 30 5 POLY(1) (V1) 4E-3 -40
*THESE COMPONENTS
EO1 30 0 POLY(1) 3 0 -.75 1
*ADDED TO SIMULATE
DO1 5  30  DX
*ACTIVE PULL-UP
IEE   3  7 DC 100.0E-6
VI1  21  1 DC .75
VI2  22  2 DC .75
Q1    9 21  7 QIN
Q2    8 22  7 QIN
Q3    9  8  4 QMO
Q4    8  8  4 QMI
.MODEL QIN PNP(IS=800.0E-18 BF=10.00E6)
.MODEL QMI NPN(IS=800.0E-18 BF=1002)
.MODEL QMO NPN(IS=800.0E-18 BF=1000 CJC=1E-15 TR=807.4E-9)
E1   10  4  9  4  1
V1   10 11 DC 0
Q5    5 11  4 QOC
.MODEL QOC NPN(IS=800.0E-18 BF=1.810E3 CJC=1E-15 TF=1.357E-9 TR=1.129E-6)
DP    4  3 DX
RP 3  4 -70E3
.MODEL DX  D(IS=800.0E-18)
*
.ENDS
**********
*SRC=TLC372T;TLC372T;Comparators;Texas Inst.;
*SYM=TICOMP1
* TLC372 VOLTAGE COMPARATOR "MACROMODEL" SUBCIRCUIT
* REV (N/A)
* CONNECTIONS:   NON-INVERTING INPUT
*                | INVERTING INPUT
*                | | POSITIVE POWER SUPPLY
*                | | | NEGATIVE POWER SUPPLY
*                | | | | OPEN COLLECTOR OUTPUT
*                | | | | |
.SUBCKT TLC372T  1 2 3 4 5
*
F1    9  3 V1 1
IEE   3  7 DC 100.0E-6
VI1  21  1 DC .75
VI2  22  2 DC .75
Q1    9 21  7 QIN
Q2    8 22  7 QIN
Q3    9  8  4 QMO
Q4    8  8  4 QMI
.MODEL QIN PNP(IS=800.0E-18 BF=10.00E6)
.MODEL QMI NPN(IS=800.0E-18 BF=1002)
.MODEL QMO NPN(IS=800.0E-18 BF=1000 CJC=1E-15 TR=403.7E-9)
E1   10  4  9  4  1
V1   10 11 DC 0
Q5    5 11  4 QOC
.MODEL QOC NPN(IS=800.0E-18 BF=507.1 CJC=1E-15 TF=842.6E-12 TR=271.4E-9)
DP    4  3 DX
RP 3  4 -105E3
.MODEL DX  D(IS=800.0E-18)
*
.ENDS
**********
*SRC=TLC374T;TLC374T;Comparators;Texas Inst.;
*SYM=TICOMP1
* TLC374 VOLTAGE COMPARATOR "MACROMODEL" SUBCIRCUIT
* REV (N/A)
* CONNECTIONS:   NON-INVERTING INPUT
*                | INVERTING INPUT