*ZETEX  BC80716 Spice model    Last revision  10/1/90
*
.MODEL BC80716 PNP IS =3.2E-14 BF =170 VAF=45 NF =0.977 IKF=1.25 ISE=7E-15
+NE =1.35 BR =50 VAR=50 NR =.986 IKR=0.15 ISC=0.9E-14 NC =1.08 RB =0.16
+RE =0.195 RC =0.185 CJE=104E-12 TF =0.7E-9 CJC=30.5-12 TR =3E-9 VJC=0.395
+MJC=0.415
*
*                          (C)  1991 ZETEX PLC
*
*   The copyright in this model  and  the design embodied belong to
*   Zetex PLC ("Zetex"). It is supplied free of charge by Zetex for
*   the purpose  of research  and design  and may be used or copied
*   intact (including this notice) for that purpose only. All other
*   rights  are  reserved.  The model  is believed  accurate but no
*   condition or warranty as to its  merchantability or fitness for
*   purpose  is  given  and  no liability  in respect of any use is
*   accepted by Zetex PLC, its distributors or agent.
*
*
*   Zetex PLC, Fields New Road, Chadderton, Oldham  OL9 8NP
*ZETEX  BC80816 Spice model    Last revision  10/1/90
*
.MODEL BC80816 PNP IS =3.2E-14 BF =170 VAF=45 NF =0.977 IKF=1.25 ISE=7E-15
+NE =1.35 BR =50 VAR=50 NR =.986 IKR=0.15 ISC=0.9E-14 NC =1.08 RB =0.16
+RE =0.195 RC =0.185 CJE=104E-12 TF =0.7E-9 CJC=30.5-12 TR =3E-9 VJC=0.395
+MJC=0.415
*
*                          (C)  1991 ZETEX PLC
*
*   The copyright in this model  and  the design embodied belong to
*   Zetex PLC ("Zetex"). It is supplied free of charge by Zetex for
*   the purpose  of research  and design  and may be used or copied
*   intact (including this notice) for that purpose only. All other
*   rights  are  reserved.  The model  is believed  accurate but no
*   condition or warranty as to its  merchantability or fitness for
*   purpose  is  given  and  no liability  in respect of any use is
*   accepted by Zetex PLC, its distributors or agent.
*
*
*   Zetex PLC, Fields New Road, Chadderton, Oldham  OL9 8NP
*   BSS84  MODEL      LAST REVISION  23/3/95
*
.SUBCKT BSS84_ZX 30 40 50
* NODES: DRAIN GATE SOURCE
M1 30 20 50 50 MOD1 L=1 W=1
RG 40 20 167
RL 30 50 50E6
D1 30 50 DIODE1
.MODEL MOD1 PMOS VTO=-1.709 RS=3.091 RD=0.979 IS=1E-15 KP=0.146
+CGSO=26P CGDO=4P CBD=12P PB=1
.MODEL DIODE1 D IS=1.072E-13 RS=0.527 N=1.077
.ENDS BSS84_ZX
*
*                          (C)  1995 ZETEX PLC
*
*   The copyright in this model  and  the design embodied belong to
*   Zetex PLC ("Zetex"). It is supplied free of charge by Zetex for
*   the purpose  of research  and design  and may be used or copied
*   intact (including this notice) for that purpose only. All other
*   rights  are  reserved.  The model  is believed  accurate but no
*   condition or warranty as to its  merchantability or fitness for
*   purpose  is  given  and  no liability  in respect of any use is
*   accepted by Zetex PLC, its distributors or agent.
*
*
*   Zetex PLC, Fields New Road, Chadderton, Oldham  OL9 8NP
*ZETEX  FMMT489  Spice model   Last revision 13/10/93
*
.MODEL FMMT489 NPN IS =1.04E-13  BF =195 IKF =1.9 VAF =160
+              ISE=1.83E-14 NE =1.35 NR =1.00 BR =140 IKR=0.5
+              VAR=30 ISC=6.00E-12 NC =1.5 RB =0.3 RE =0.065
+              RC =0.11 CJC=25.37E-12 MJC=0.3281 VJC=0.464
+              CJE=122E-12 MJE=0.3412 VJE=0.7631 TF =0.86E-9
+              TR =12.5E-9
*
*
*                          (C)  1993 ZETEX PLC
*
*   The copyright in this model  and  the design embodied belong to
*   Zetex PLC ("Zetex"). It is supplied free of charge by Zetex for
*   the purpose  of research  and design  and may be used or copied
*   intact (including this notice) for that purpose only. All other
*   rights  are  reserved.  The model  is believed  accurate but no
*   condition or warranty as to its  merchantability or fitness for
*   purpose  is  given  and  no liability  in respect of any use is
*   accepted by Zetex PLC, its distributors or agents.
*
*
*   Zetex PLC, Fields New Road, Chadderton, Oldham  OL9 8NP
*   ZETEX   FMMT497   Spice model   Last Revision 1/10/96
*
.MODEL FMMT497 NPN IS=1.287E-13 NF=0.9975 IKF=6 RE=0.17 BF=220
+              ISE=3.931E-14 NE=1.443 RB=0.145 NR=1.02 IKR=0.6
+              RC=0.04 BR=146 ISC=3.45E-13 NC=1.16 VAF= 678 VAR=87
+              CJC=8.39E-12 MJC=0.395 VJC=0.434 CJE=1.21E-10
+              MJE=0.342 VJE=0.762 TF=1.98E-9 TR=3.6E-7
*
*
*                          (C)  1996 ZETEX PLC
*
*   The copyright in this model  and  the design embodied belong to
*   Zetex PLC ("Zetex"). It is supplied free of charge by Zetex for
*   the purpose  of research  and design  and may be used or copied
*   intact (including this notice) for that purpose only. All other
*   rights  are  reserved.  The model  is believed  accurate but no
*   condition or warranty as to its  merchantability or fitness for
*   purpose  is  given  and  no liability  in respect of any use is
*   accepted by Zetex PLC, its distributors or agent.
*
*
*   Zetex PLC, Fields New Road, Chadderton, Oldham  OL9 8NP
*ZETEX  FMMT5179 Spice model   Last revision 14/3/97
*
.MODEL FMMT5179 NPN IS=5.6E-16  BF=133 IKF=2.5E-2 VAF=40
+              ISE=6.367E-15 NE=1.75 NR=0.99 BR=8 IKR=1E-2 VAR=6
+              ISC=1E-15 NC=1.167 RB=5 RE=0.65 RC=1.8
+              CJC=1.197E-12 MJC=0.2588 VJC=0.5617 CJE=1.012E-12
+              MJE=0.4496 VJE=1.195 RBM=0.5 IRB=5E-4
+              TF=6E-11 TR=40.5E-9 ITF=2.5 XTF=1000
*
*                          (C)  1993 ZETEX PLC
*
*   The copyright in this model  and  the design embodied belong to
*   Zetex PLC ("Zetex"). It is supplied free of charge by Zetex for
*   the purpose  of research  and design  and may be used or copied
*   intact (including this notice) for that purpose only. All other
*   rights  are  reserved.  The model  is believed  accurate but no
*   condition or warranty as to its  merchantability or fitness for
*   purpose  is  given  and  no liability  in respect of any use is
*   accepted by Zetex PLC, its distributors or agents.
*
*
*   Zetex PLC, Fields New Road, Chadderton, Oldham  OL9 8NP
*ZETEX  FMMT549 Spice model   Last revision 11/10/94
*
.MODEL FMMT549 PNP IS =1.3E-13 BF =200 IKF=1.8 VAF=104
+              ISE=6E-14 NE =1.45 BR =50 IKR=0.2 VAR=8
+              ISC=3.5E-14 NC =1.23 RB =0.7 RE =0.063 RC =0.122
+              CJC=55E-12 MJC=0.3541 VJC=0.1928 CJE=120.9E-12
+              MJE=.4685 VJE=1.041 TF =0.51E-9 TR =3.6E-9
*
*
*                          (C)  1994 ZETEX PLC
*
*   The copyright in this model  and  the design embodied belong to
*   Zetex PLC ("Zetex"). It is supplied free of charge by Zetex for
*   the purpose  of research  and design  and may be used or copied
*   intact (including this notice) for that purpose only. All other
*   rights  are  reserved.  The model  is believed  accurate but no
*   condition or warranty as to its  merchantability or fitness for
*   purpose  is  given  and  no liability  in respect of any use is
*   accepted by Zetex PLC, its distributors or agents.
*
*
*   Zetex PLC, Fields New Road, Chadderton, Oldham  OL9 8NP
*ZETEX  FMMT589 Spice model   Last revision 11/10/94
*
.MODEL FMMT589 PNP IS =1.3E-13 BF =200 IKF=1.8 VAF=104
+              ISE=6E-14 NE =1.45 BR =50 IKR=0.2 VAR=8
+              ISC=3.5E-14 NC =1.23 RB =0.7 RE =0.063 RC =0.122
+              CJC=55E-12 MJC=0.3541 VJC=0.1928 CJE=120.9E-12
+              MJE=.4685 VJE=1.041 TF =0.51E-9 TR =3.6E-9
*
*
*                          (C)  1994 ZETEX PLC
*
*   The copyright in this model  and  the design embodied belong to
*   Zetex PLC ("Zetex"). It is supplied free of charge by Zetex for
*   the purpose  of research  and design  and may be used or copied
*   intact (including this notice) for that purpose only. All other
*   rights  are  reserved.  The model  is believed  accurate but no
*   condition or warranty as to its  merchantability or fitness for
*   purpose  is  given  and  no liability  in respect of any use is
*   accepted by Zetex PLC, its distributors or agents.
*
*
*   Zetex PLC, Fields New Road, Chadderton, Oldham  OL9 8NP
*ZETEX  FMMT617 Spice model   Last revision 19/4/94
*
.MODEL FMMT617  NPN IS =5.92E-13 BF =500 IKF=5 VAF=34.6
+               ISE=1.27E-13 NE =1.425 NR =1 BR =280 IKR=2 VAR=12.25
+               ISC=6.138E-13 NC =1.46 RB =0.1 RE =0.025 RC =0.017
+               CJC=76E-12 MJC=0.2981 VJC=0.4414 CJE=230E-12
+               MJE=0.3569 VJE=0.7042 TF =1.12E-9 TR =2.15E-9
*
*
*                          (C)  1994 ZETEX PLC
*
*   The copyright in this model  and  the design embodied belong to
*   Zetex PLC ("Zetex"). It is supplied free of charge by Zetex for
*   the purpose  of research  and design  and may be used or copied
*   intact (including this notice) for that purpose only. All other
*   rights  are  reserved.  The model  is believed  accurate but no
*   condition or warranty as to its  merchantability or fitness for
*   purpose  is  given  and  no liability  in respect of any use is
*   accepted by Zetex PLC, its distributors or agents.
*
*
*   Zetex PLC, Fields New Road, Chadderton, Oldham  OL9 8NP
*ZETEX  FMMT618 Spice model   Last revision 8/7/93
*
.MODEL FMMT618  NPN IS =5.611E-13 NF =1.0022 BF =480 IKF=4.6 VAF=51
+               ISE=1.73E-13 NE =1.4 NR =1.0002 BR =200 IKR=3 VAR=25
+               ISC=7.3152E-13 NC =1.47 RB =0.032 RE =0.027 RC =0.025
+               CJC=59E-12 MJC=0.2651 VJC=0.3051 CJE=216E-12
+               TF =0.95E-9 TR =2.25E-9
*
*
*                          (C)  1993 ZETEX PLC
*
*   The copyright in this model  and  the design embodied belong to
*   Zetex PLC ("Zetex"). It is supplied free of charge by Zetex for
*   the purpose  of research  and design  and may be used or copied
*   intact (including this notice) for that purpose only. All other
*   rights  are  reserved.  The model  is believed  accurate but no
*   condition or warranty as to its  merchantability or fitness for
*   purpose  is  given  and  no liability  in respect of any use is
*   accepted by Zetex PLC, its distributors or agents.
*
*
*   Zetex PLC, Fields New Road, Chadderton, Oldham  OL9 8NP
*ZETEX  FMMT619 Spice model   Last revision 8/7/93
*
.MODEL FMMT619  NPN IS =5.8032E-13 NF =1.0027 BF =485 IKF=2.2 VAF=84
+               ISE=1.5933E-13 NE =1.4148 NR =1.0006 BR =110 IKR=1.4
+               VAR=51 ISC=5E-12 NC =1.45 RB =0.042 RE =0.033
+               RC =0.0375 CJC=40E-12 MJC=0.3708 VJC=0.4347 CJE=217E-12
+               TF =0.78E-9 TR =9E-9
*
*
*                          (C)  1993 ZETEX PLC
*
*   The copyright in this model  and  the design embodied belong to
*   Zetex PLC ("Zetex"). It is supplied free of charge by Zetex for
*   the purpose  of research  and design  and may be used or copied
*   intact (including this notice) for that purpose only. All other
*   rights  are  reserved.  The model  is believed  accurate but no
*   condition or warranty as to its  merchantability or fitness for
*   purpose  is  given  and  no liability  in respect of any use is
*   accepted by Zetex PLC, its distributors or agents.
*
*
*   Zetex PLC, Fields New Road, Chadderton, Oldham  OL9 8NP
*ZETEX  FMMT624 Spice model   Last revision 12/7/93
*
.MODEL FMMT624  NPN IS =6.855E-13 NF =1.0037 BF =540 IKF=0.95 VAF=231
+               ISE=2.23E-13 NE =1.4195 NR =1.0024 BR =100 IKR=2
+               VAR=61 ISC=3E-12 NC =1.2276 RB =0.036 RE =0.065
+               RC =0.1 CJC=28E-12 MJC=0.4348 VJC=0.4934 CJE=207E-12
+               TF =0.85E-9 TR =49E-9
*
*
*                          (C)  1993 ZETEX PLC
*
*   The copyright in this model  and  the design embodied belong to
*   Zetex PLC ("Zetex"). It is supplied free of charge by Zetex for
*   the purpose  of research  and design  and may be used or copied
*   intact (including this notice) for that purpose only. All other
*   rights  are  reserved.  The model  is believed  accurate but no
*   condition or warranty as to its  merchantability or fitness for
*   purpose  is  given  and  no liability  in respect of any use is
*   accepted by Zetex PLC, its distributors or agents.
*
*
*   Zetex PLC, Fields New Road, Chadderton, Oldham  OL9 8NP
*ZETEX  FMMT625 Spice model   Last revision 13/7/93
*
.MODEL FMMT625  NPN IS =6.2024E-13 NF =1.0037 BF =450 IKF=0.6 VAF=428
+               ISE=2.3242E-13 NE =1.4689 NR =1.0033 BR =250 IKR=1.7
+               VAR=73 ISC=7.66E-13 NC =1.1546 RB =0.036 RE =0.090
+               RC =0.143 CJC=24.5E-12 MJC=0.4246 VJC=0.4425 CJE=210E-12
+               TF =0.99E-9 TR =60E-9
*
*
*                          (C)  1993 ZETEX PLC
*
*   The copyright in this model  and  the design embodied belong to
*   Zetex PLC ("Zetex"). It is supplied free of charge by Zetex for
*   the purpose  of research  and design  and may be used or copied
*   intact (including this notice) for that purpose only. All other
*   rights  are  reserved.  The model  is believed  accurate but no
*   condition or warranty as to its  merchantability or fitness for
*   purpose  is  given  and  no liability  in respect of any use is
*   accepted by Zetex PLC, its distributors or agents.
*
*
*   Zetex PLC, Fields New Road, Chadderton, Oldham  OL9 8NP
*ZETEX  FMMT717  Spice model   Last revision 25/3/94
*
.MODEL FMMT717 PNP IS =5.5E-13  BF =500 IKF =3 VAF =14.93
+              ISE=1.75E-13 NE =1.5 NR =1.00 BR =280 IKR=0.3
+              VAR=5.64 ISC=6.01E-13 NC =1.34 RB =0.3 RE =0.03
+              RC =0.025 CJC=116.9E-12 MJC=0.3456 VJC=0.4576
+              CJE=223.6E-12 MJE=0.4803 VJE=0.9091 TF =1.2E-9
+              TR =2E-9
*
*
*                          (C)  1994 ZETEX PLC
*
*   The copyright in this model  and  the design embodied belong to
*   Zetex PLC ("Zetex"). It is supplied free of charge by Zetex for
*   the purpose  of research  and design  and may be used or copied
*   intact (including this notice) for that purpose only. All other
*   rights  are  reserved.  The model  is believed  accurate but no
*   condition or warranty as to its  merchantability or fitness for
*   purpose  is  given  and  no liability  in respect of any use is
*   accepted by Zetex PLC, its distributors or agents.
*
*
*   Zetex PLC, Fields New Road, Chadderton, Oldham  OL9 8NP
*ZETEX  FMMT718  Spice model   Last revision 15/12/93
*
.MODEL FMMT718 PNP IS =6.8E-13  BF =480 IKF =2 VAF =23
+              ISE=0.8E-13 NE =1.5567 NR =1.00 BR =70 IKR=0.4
+              VAR=7 ISC=7.5E-14 NC =1.19 RB =0.085 RE =0.04
+              RC =0.045 CJC=70.02E-12 MJC=0.4685 VJC=0.7714
+              CJE=203.6E-12 MJE=0.5029 VJE=0.9403 TF =0.71E-9
+              TR =23.7E-9
*
*
*                          (C)  1993 ZETEX PLC
*
*   The copyright in this model  and  the design embodied belong to
*   Zetex PLC ("Zetex"). It is supplied free of charge by Zetex for
*   the purpose  of research  and design  and may be used or copied
*   intact (including this notice) for that purpose only. All other
*   rights  are  reserved.  The model  is believed  accurate but no
*   condition or warranty as to its  merchantability or fitness for
*   purpose  is  given  and  no liability  in respect of any use is
*   accepted by Zetex PLC, its distributors or agents.
*
*
*   Zetex PLC, Fields New Road, Chadderton, Oldham  OL9 8NP
*ZETEX  FMMT720  Spice model   Last revision 15/12/93
*
.MODEL FMMT720 PNP IS =6.261E-13  BF =500 IKF =1.4 VAF =28.4
+              ISE=1.057E-13 NE =1.4923 NR =1.00 BR =42 IKR=0.65
+              VAR=10.21 ISC=6E-14 NC =1.124 RB =0.078 RE =0.077
+              RC =0.04 CJC=59.54E-12 MJC=0.5058 VJC=0.8427
+              CJE=201.4E-12 MJE=0.5244 VJE=1.021 TF =0.68E-9
+              TR =23.7E-9
*
*
*                          (C)  1993 ZETEX PLC
*
*   The copyright in this model  and  the design embodied belong to
*   Zetex PLC ("Zetex"). It is supplied free of charge by Zetex for
*   the purpose  of research  and design  and may be used or copied
*   intact (including this notice) for that purpose only. All other
*   rights  are  reserved.  The model  is believed  accurate but no
*   condition or warranty as to its  merchantability or fitness for
*   purpose  is  given  and  no liability  in respect of any use is
*   accepted by Zetex PLC, its distributors or agents.
*
*
*   Zetex PLC, Fields New Road, Chadderton, Oldham  OL9 8NP
*ZETEX  FMMT722  Spice model   Last revision 15/12/93
*
.MODEL FMMT722 PNP IS =6.348E-13  BF =450 IKF =1.25 VAF =30.24
+              ISE=1.375E-13 NE =1.5 NR =1.00 BR =25 IKR=0.8
+              VAR=12.6 ISC=1E-13 NC =1.093 RB =0.081 RE =0.09
+              RC =0.1 CJC=49.87E-12 MJC=0.494 VJC=0.7653
+              CJE=199E-12 MJE=0.5045 VJE=0.9617 TF =0.57E-9
+              TR =57E-9
*
*
*                          (C)  1993 ZETEX PLC
*
*   The copyright in this model  and  the design embodied belong to
*   Zetex PLC ("Zetex"). It is supplied free of charge by Zetex for
*   the purpose  of research  and design  and may be used or copied
*   intact (including this notice) for that purpose only. All other
*   rights  are  reserved.  The model  is believed  accurate but no
*   condition or warranty as to its  merchantability or fitness for
*   purpose  is  given  and  no liability  in respect of any use is
*   accepted by Zetex PLC, its distributors or agents.
*
*
*   Zetex PLC, Fields New Road, Chadderton, Oldham  OL9 8NP
*ZETEX  FMMT723  Spice model   Last revision 15/12/93
*
.MODEL FMMT723 PNP IS =5.5E-13  BF =440 IKF =1 VAF =50.88
+              ISE=1.554E-13 NE =1.477 NR =1.03 BR =30 IKR=0.7
+              VAR=13.79 ISC=1.3E-12 NC =1.198 RB =1.5 RE =0.02
+              RC =0.14 CJC=45.74E-12 MJC=0.4889 VJC=0.711
+              CJE=204.3E-12 MJE=0.5105 VJE=0.9711 TF =0.63E-9
+              TR =95E-9
*
*
*                          (C)  1993 ZETEX PLC
*
*   The copyright in this model  and  the design embodied belong to
*   Zetex PLC ("Zetex"). It is supplied free of charge by Zetex for
*   the purpose  of research  and design  and may be used or copied
*   intact (including this notice) for that purpose only. All other
*   rights  are  reserved.  The model  is believed  accurate but no
*   condition or warranty as to its  merchantability or fitness for
*   purpose  is  given  and  no liability  in respect of any use is
*   accepted by Zetex PLC, its distributors or agents.
*
*
*   Zetex PLC, Fields New Road, Chadderton, Oldham  OL9 8NP
*ZETEX  FMMTH10 Spice model   Last revision 14/3/97
*
.MODEL FMMTH10 NPN IS =5.6E-16  BF =133 IKF=2.5E-2 VAF=40
+              ISE=6.367E-15 NE =1.75 NR =0.99 BR =8 IKR=1E-2 VAR=6
+              ISC=1E-15 NC =1.167 RB =5 RE =0.65 RC =1.8
+              CJC=1.197E-12 MJC=0.2588 VJC=0.5617 CJE=1.012E-12
+              MJE=0.4496 VJE=1.195 RBM =0.5 IRB =5E-4
+              TF =6E-11 TR =40.5E-9 ITF =2.5 XTF =1000
*
*                          (C)  1993 ZETEX PLC
*
*   The copyright in this model  and  the design embodied belong to
*   Zetex PLC ("Zetex"). It is supplied free of charge by Zetex for
*   the purpose  of research  and design  and may be used or copied
*   intact (including this notice) for that purpose only. All other
*   rights  are  reserved.  The model  is believed  accurate but no
*   condition or warranty as to its  merchantability or fitness for
*   purpose  is  given  and  no liability  in respect of any use is
*   accepted by Zetex PLC, its distributors or agents.
*
*
*   Zetex PLC, Fields New Road, Chadderton, Oldham  OL9 8NP
*ZETEX  FZT1047A Spice model   Last revision 18/3/97
*
.MODEL FZT1047A  NPN IS=9.73E-13  NF=1.0  BF=550  IKF=8.0  VAF=120
+               ISE=2.6E-13  NE=1.38  NR=1.0  BR=400  IKR=5  VAR=15
+               ISC=8E-13  NC=1.4  RB=0.1  RE=0.017  RC=0.010
+               CJC=195.4E-12  CJE=540.4E-12  MJC=0.257  MJE=0.359
+               VJC=0.390  VJE=0.753  TF=450E-12  TR=1.2E-9
*
*
*                          (C)  1997 ZETEX PLC
*
*   The copyright in this model  and  the design embodied belong to
*   Zetex PLC ("Zetex"). It is supplied free of charge by Zetex for
*   the purpose  of research  and design  and may be used or copied
*   intact (including this notice) for that purpose only. All other
*   rights  are  reserved.  The model  is believed  accurate but no
*   condition or warranty as to its  merchantability or fitness for
*   purpose  is  given  and  no liability  in respect of any use is
*   accepted by Zetex PLC, its distributors or agents.
*
*
*   Zetex PLC, Fields New Road, Chadderton, Oldham  OL9 8NP
*ZETEX  FZT1048A Spice model   Last revision 14/3/97
*
.MODEL FZT1048A NPN IS=13.73E-13  NF=1.0  BF=550  IKF=8.0  VAF=120
+               ISE=2.6E-13  NE=1.38  NR=1.0  BR=300  IKR=6  VAR=15
+               ISC=1.6E-12  NC=1.4  RB=0.1  RE=0.022  RC=0.010
+               CJC=136E-12  CJE=559.1E-12  MJC=0.267  MJE=0.299
+               VJC=0.420  VJE=0.533  TF=600E-12  TR=3E-9
*
*
*                          (C)  1994 ZETEX PLC
*
*   The copyright in this model  and  the design embodied belong to
*   Zetex PLC ("Zetex"). It is supplied free of charge by Zetex for
*   the purpose  of research  and design  and may be used or copied
*   intact (including this notice) for that purpose only. All other
*   rights  are  reserved.  The model  is believed  accurate but no
*   condition or warranty as to its  merchantability or fitness for
*   purpose  is  given  and  no liability  in respect of any use is
*   accepted by Zetex PLC, its distributors or agents.
*
*
*   Zetex PLC, Fields New Road, Chadderton, Oldham  OL9 8NP
*ZETEX  FZT1049A Spice model   Last revision 18/3/97
*
.MODEL     FZT1049A  NPN IS=1.5E-12  NF=1.0  BF=600  IKF=7.5  VAF=100
+               ISE=0.9E-13  NE=1.25  NR=1.0  BR=150  IKR=3  VAR=15
+               ISC=5.0E-13  NC=1.76  RB=0.1  RE=0.018  RC=0.007
+               CJC=136E-12  CJE=550E-12  MJC=0.352  MJE=0.36
+               VJC=0.554   VJE=0.726  TF=400E-12  TR=6.9E-9
*
*
*                          (C)  1997 ZETEX PLC
*
*   The copyright in this model  and  the design embodied belong to
*   Zetex PLC ("Zetex"). It is supplied free of charge by Zetex for
*   the purpose  of research  and design  and may be used or copied
*   intact (including this notice) for that purpose only. All other
*   rights  are  reserved.  The model  is believed  accurate but no
*   condition or warranty as to its  merchantability or fitness for
*   purpose  is  given  and  no liability  in respect of any use is
*   accepted by Zetex PLC, its distributors or agents.
*
*
*   Zetex PLC, Fields New Road, Chadderton, Oldham  OL9 8NP
*ZETEX  FZT1051A Spice model   Last revision 18/3/97
*
.MODEL FZT1051A  NPN IS=1.35E-12  NF=1.0  BF=600  IKF=5.0  VAF=120
+               ISE=0.6E-13  NE=1.25  NR=1.0  BR=150  IKR=3  VAR=15
+               ISC=1.0E-10  NC=1.7  RB=0.1  RE=0.023  RC=0.010
+               CJC=90.36E-12  CJE=547.5E-12  MJC=0.385  MJE=0.357
+               VJC=0.5 VJE=0.741  TF=600E-12  TR=8E-9
*
*
*                          (C)  1997 ZETEX PLC
*
*   The copyright in this model  and  the design embodied belong to
*   Zetex PLC ("Zetex"). It is supplied free of charge by Zetex for
*   the purpose  of research  and design  and may be used or copied
*   intact (including this notice) for that purpose only. All other
*   rights  are  reserved.  The model  is believed  accurate but no
*   condition or warranty as to its  merchantability or fitness for
*   purpose  is  given  and  no liability  in respect of any use is
*   accepted by Zetex PLC, its distributors or agents.
*
*
*   Zetex PLC, Fields New Road, Chadderton, Oldham  OL9 8NP
*ZETEX  FZT1053A Spice model   Last revision 18/3/97
*
.MODEL FZT1053A  NPN IS=2.1E-12  NF=1.0  BF=600  IKF=2.2  VAF=100
+               ISE=0.9E-13  NE=1.25  NR=0.99  BR=150  IKR=2.5  VAR=15
+               ISC=5.0E-10  NC=1.76  RB=0.1  RE=0.028  RC=0.016
+               CJC=75.1E-12  CJE=520E-12  MJC=0.415  MJE=0.367
+               VJC=0.512  VJE=0.766  TF=550E-12  TR=22E-9
*
*
*                          (C)  1997 ZETEX PLC
*
*   The copyright in this model  and  the design embodied belong to
*   Zetex PLC ("Zetex"). It is supplied free of charge by Zetex for
*   the purpose  of research  and design  and may be used or copied
*   intact (including this notice) for that purpose only. All other
*   rights  are  reserved.  The model  is believed  accurate but no
*   condition or warranty as to its  merchantability or fitness for
*   purpose  is  given  and  no liability  in respect of any use is
*   accepted by Zetex PLC, its distributors or agents.
*
*
*   Zetex PLC, Fields New Road, Chadderton, Oldham  OL9 8NP
*   ZETEX   FZT1147A   Spice model   Last revision 10/12/96
*
.MODEL FZT1147A  PNP IS=1.272e-12 NF=0.989 ISE=2.5e-13 NE=1.65 BF=500
+               VAF=14.59 IKF=8 NR=1 ISC=8e-14 NC= 1.6 BR=90 VAR=3.1
+               IKR=1.2 RE=15e-3 RB=145e-3 RC=13e-3 CJE=560e-12
+               CJC=255e-12 VJC=0.6288 MJC=0.4048 TF=1.2e-9 TR=13e-9
*
*
*                          (C)  1996 ZETEX PLC
*
*   The copyright in this model  and  the design embodied belong to
*   Zetex PLC ("Zetex"). It is supplied free of charge by Zetex for
*   the purpose  of research  and design  and may be used or copied
*   intact (including this notice) for that purpose only. All other
*   rights  are  reserved.  The model  is believed  accurate but no
*   condition or warranty as to its  merchantability or fitness for
*   purpose  is  given  and  no liability  in respect of any use is
*   accepted by Zetex PLC, its distributors or agent.
*
*
*   Zetex PLC, Fields New Road, Chadderton, Oldham  OL9 8NP
*   ZETEX   FZT1149A    Spice model   Last revision 10/1/97
*
.MODEL FZT1149A PNP IS=9.5e-13 NF=1.002 ISE=1.2e-13 NE=1.4 BF=520
+              VAF=24.97 IKF=5 NR=0.997 ISC=4.5E-13 NC=1.25 BR=40
+              VAR=2.51 IKR=0.7 RE=20e-3 RB=150e-3 RC=10e-3
+              CJE=490e-12 CJC=150e-12 VJC=1.094 MJC=0.4739
+              TF=1e-9 TR=3.5e-9
*
*
*                          (C)  1997 ZETEX PLC
*
*   The copyright in this model  and  the design embodied belong to
*   Zetex PLC ("Zetex"). It is supplied free of charge by Zetex for
*   the purpose  of research  and design  and may be used or copied
*   intact (including this notice) for that purpose only. All other
*   rights  are  reserved.  The model  is believed  accurate but no
*   condition or warranty as to its  merchantability or fitness for
*   purpose  is  given  and  no liability  in respect of any use is
*   accepted by Zetex PLC, its distributors or agent.
*
*
*   Zetex PLC, Fields New Road, Chadderton, Oldham  OL9 8NP
*   ZETEX   FZT1151A   Spice model   Last revision 12/12/96
*
.MODEL FZT1151A PNP IS=1.7e-12 NF=1.004 ISE=1.02e-13 NE=1.55 BF=562
+              VAF=26.01 IKF=3.5 NR=.97 ISC=1.5e-13 NC=1.3 BR=38
+              VAR=2.41 IKR=0.3 RE=25.37e-3 RB=250e-3 RC=25e-3
+              CJE=440e-12 CJC=160e-12 VJC=1.058 MJC=0.5678
+              TF=0.8e-9 TR=55.5e-9
*
*
*                          (C)  1996 ZETEX PLC
*
*   The copyright in this model  and  the design embodied belong to
*   Zetex PLC ("Zetex"). It is supplied free of charge by Zetex for
*   the purpose  of research  and design  and may be used or copied
*   intact (including this notice) for that purpose only. All other
*   rights  are  reserved.  The model  is believed  accurate but no
*   condition or warranty as to its  merchantability or fitness for
*   purpose  is  given  and  no liability  in respect of any use is
*   accepted by Zetex PLC, its distributors or agent.
*
*
*   Zetex PLC, Fields New Road, Chadderton, Oldham  OL9 8NP
*ZETEX  FZT653 Spice model   Last revision 18/3/97
*
.MODEL FZT653 NPN IS =3.8206E-13 NF =1.0025 BF =250 IKF=1.15 VAF=154
+             ISE=1.035E-13 NE =1.3642 NR =1.0012 BR =50 IKR=0.42 VAR=38
+             ISC=7E-13 NC =1.19 RB =0.04 RE =0.0875 RC =0.06
+             CJC=45.5E-12 MJC=0.4534 VJC=0.5774 CJE=278E-12
+             TF =0.78E-9 TR =30E-9
*
*
*                          (C)  1993 ZETEX PLC
*
*   The copyright in this model  and  the design embodied belong to
*   Zetex PLC ("Zetex"). It is supplied free of charge by Zetex for
*   the purpose  of research  and design  and may be used or copied
*   intact (including this notice) for that purpose only. All other
*   rights  are  reserved.  The model  is believed  accurate but no
*   condition or warranty as to its  merchantability or fitness for
*   purpose  is  given  and  no liability  in respect of any use is
*   accepted by Zetex PLC, its distributors or agents.
*
*
*   Zetex PLC, Fields New Road, Chadderton, Oldham  OL9 8NP
*ZETEX  FZT753 Spice model   Last revision 18/3/97
*
.MODEL FZT753 PNP IS =3.2007E-13 NF =1.0041 BF =200 IKF=1.6 VAF=76
+             ISE=8E-14 NE =1.57 NR =1.0008 BR =33 IKR=0.45 VAR=51
+             ISC=6E-14 NC =1.079 RB =0.087 RE =0.08 RC =0.07
+             CJC=80E-12 MJC=0.4896 VJC=0.7676 CJE=350E-12
+             TF =0.86E-9 TR =24E-9
*
*
*                          (C)  1993 ZETEX PLC
*
*   The copyright in this model  and  the design embodied belong to
*   Zetex PLC ("Zetex"). It is supplied free of charge by Zetex for
*   the purpose  of research  and design  and may be used or copied
*   intact (including this notice) for that purpose only. All other
*   rights  are  reserved.  The model  is believed  accurate but no
*   condition or warranty as to its  merchantability or fitness for
*   purpose  is  given  and  no liability  in respect of any use is
*   accepted by Zetex PLC, its distributors or agents.
*
*
*   Zetex PLC, Fields New Road, Chadderton, Oldham  OL9 8NP
*ZETEX   FZT795A  Spice model   Last revision 14/3/97
*
.MODEL FZT795A PNP IS=7.2932E-13 NF=1.003 BF=595 IKF=0.4 VAF=45
+ISE=8.77307E-14 NE=1.44784 NR=0.996 BR=65 IKR=0.42 VAR=41
+ISC=1.52968E-13 NC=1.01957 RB=0.056 RE=0.093 RC=0.143 CJC=65.5E-12
+MJC=0.52 VJC=0.74 CJE=275E-12 TF=0.83E-9 TR=307E-9
*Note, Model may be inaccurate for collector currents above 0.45A.
*
*
*                          (C)  1991 ZETEX PLC
*
*   The copyright in this model  and  the design embodied belong to
*   Zetex PLC ("Zetex"). It is supplied free of charge by Zetex for
*   the purpose  of research  and design  and may be used or copied