*                    ZETEX Spice Model Library v4.5
*                     (Last Revision June 2002)
*
*NOTE 1
*To introduce temperature dependence for bipolar current gain 
*into a ZETEX model please insert the term XTB.  XTB is none 
*linear with temperature and an average value around room 
*temperature is 1.4.  For better accuracy when working around 
*-55°C use a value of 1.7 and around 100°C use a value of 1.1.
*
*NOTE 2
*Some ZETEX high voltage bipolar models use RCO & GAMMA as supported by
*MicroSim PSpice.  Spice software which does not support RCO & GAMMA 
*will model the quasi-saturation region incorrectly.  The resulting 
*model will return optimistic values for forward Vcesat, current gain 
*and Tdon.  If you have problems simulating the quasi saturation region
*with software, which does not support  RCO & GAMMA, try increasing RE 
*and decreasing BF and IKF to get a better result.
*
*
*
*ZETEX 2N2222A Spice model   Last revision 9/12/92
*
.MODEL 2N2222A NPN IS =3.0611E-14 NF =1.00124 BF =220 IKF=0.52 
+              VAF=104 ISE=7.5E-15 NE =1.41 NR =1.005 BR =4 IKR=0.24 
+              VAR=28 ISC=1.06525E-11 NC =1.3728 RB =0.13 RE =0.22 
+              RC =0.12 CJC=9.12E-12 MJC=0.3508 VJC=0.4089 
+              CJE=27.01E-12 TF =0.325E-9 TR =100E-9
*
*$
*
*ZETEX  2N6715 Spice model   Last revision  16/1/91
*   
.MODEL 2N6715 NPN IS =2.218E-13 NF =.9956 BF =230 IKF=2 VAF=100 ISE=2.9E-14
+NE =1.35 NR =.995 BR =56 IKR=1 VAR=30 ISC=2.971E-13 NC =1.321 RB =.04
+RE =.075 RC =.069 CJC=51E-12 MJC=.42 VJC=.595 CJE=318E-12 TF =.77E-9
+TR =27E-9
*
*$
*
*ZETEX  2N6727 Spice model   Last revision  23/1/91
*
.MODEL 2N6727 PNP IS =2.715E-13 BF =170 VAF=70 NF =1.004 IKF=2.75 ISE=1E-13
+NE =1.535 BR =23 VAR=40 NR =1.005 IKR=.55 ISC=5.15E-14 NC =1.13 RB =.07
+RE =.065 RC =.085 CJE=360E-12 TF =.94E-9 CJC=90E-12 TR =60E-9 VJC=.705
+MJC=.46
*
*$
*
*ZETEX  2SA1213 Spice model       Last revision  17/7/90
*
.MODEL 2SA1213 PNP IS =2.6E-13 BF =210 VAF=27 IKF=7 ISE=1.2E-13 NE =1.43 
+BR =70 VAR=14 IKR=.6 ISC=12.04E-13 NC =1.4474 NF =.999 NR =.982 RB =.3 
+RE =.065 RC =.04 CJE=410E-12 TF =.65E-9 CJC=140E-12 TR =12E-9 MJC=.35 
+VJC=.305
*
*$
*
*ZETEX  2SC2873 Spice model   Last revision  17/7/90
*
.MODEL 2SC2873 NPN IS =3E-13 BF =225 VAF=80 IKF=2.8 ISE=1.1E-13 NE =1.37
+BR =110 VAR=28 NR =.972 IKR=0.8 ISC=6.5E-13 NC =1.372 RB =0.3 RE =.063
+RC =.07 CJE=325E-12 TF =1E-9 CJC=70E-12 TR =10E-9
*
*$
*
*ZETEX  BAL74   Spice Model        Last revision 24/8/92
*
.MODEL BAL74 D IS=4.739E-9 N=1.849 RS=.4418 XTI=3 
+      EG=1.11 BV=99.08 IBV=25.88E-3 TT=2.02E-9
*
*      FOR LATER VERSIONS OF SPICE:-  SET RS=.4318 AND ADD
*    + ISR=4.04E-9 NR=2.236 IKF=3.373
*
*   NOTES: FOR RF OPERATION ADD PACKAGE INDUCTANCE 0F 2.5E-9H AND 
*          PARALLEL CAPACITANCE OF 0.95E-12F.
*
*$
*
*ZETEX  BAL99    Spice Model        Last revision 21/8/92
*
.MODEL BAL99 D IS=4.858E-9 N=2.038 RS=1.898 XTI=3 
+      EG=1.11 BV=164.1 IBV=12.94E-3 TT=4.184E-9
*
*      FOR LATER VERSIONS OF SPICE:-  SET RS=1.238 AND ADD
*    + ISR=7.937E-9 NR=2.113 IKF=22.89E-3
*
*   NOTES: FOR RF OPERATION ADD PACKAGE INDUCTANCE 0F 2.5E-9H AND 
*   PARALLEL CAPACITANCE OF 0.51E-12F.
*
*$
*
*ZETEX  BAR74   Spice Model        Last revision 24/8/92
*
.MODEL BAR74 D IS=4.739E-9 N=1.849 RS=.4418 XTI=3 
+      EG=1.11 BV=99.08 IBV=25.88E-3 TT=2.02E-9
*
*      FOR LATER VERSIONS OF SPICE:-  SET RS=.4318 AND ADD
*    + ISR=4.04E-9 NR=2.236 IKF=3.373
*
*   NOTES: FOR RF OPERATION ADD PACKAGE INDUCTANCE 0F 2.5E-9H AND 
*          PARALLEL CAPACITANCE OF 0.95E-12F.
*
*$
*
*ZETEX  BAR99    Spice Model        Last revision 21/8/92
*
.MODEL BAR99 D IS=4.858E-9 N=2.038 RS=1.898 XTI=3 
+      EG=1.11 BV=164.1 IBV=12.94E-3 TT=4.184E-9
*
*      FOR LATER VERSIONS OF SPICE:-  SET RS=1.238 AND ADD
*    + ISR=7.937E-9 NR=2.113 IKF=22.89E-3
*
*   NOTES: FOR RF OPERATION ADD PACKAGE INDUCTANCE 0F 2.5E-9H AND 
*   PARALLEL CAPACITANCE OF 0.51E-12F.
*
*$
*
*ZETEX  BAS16  Spice Model        Last revision 24/8/92
*
.MODEL BAS16 D IS=1.795E-9 N=1.874 RS=1.263 XTI=3 
+      EG=1.11 BV=153.1 IBV=17.26E-3 TT=7.358E-9
*
*      FOR LATER VERSIONS OF SPICE:-  SET RS=1.173 AND ADD
*    + ISR=1.086E-9 NR=2.955 IKF=2.726
*
*   NOTES: FOR RF OPERATION ADD PACKAGE INDUCTANCE 0F 2.5E-9H AND 
*          PARALLEL CAPACITANCE OF 0.555E-12F.
*
*$
*
*ZETEX  BAS19    Spice Model        Last revision 21/8/92
*
.MODEL BAS19 D IS=8.402E-9 N=2.011 RS=.5125 XTI=3
+      EG=1.11 BV=435 IBV=4.139E-3 TT=41.84E-9
*
*      FOR LATER VERSIONS OF SPICE:-  SET RS=.3215 AND ADD
*      + ISR=3.853E-9 NR=2.222 IKF=.1155
*
*   NOTE: FOR RF OPERATION ADD PACKAGE INDUCTANCE OF 2.5E-9H AND
*         PARALLEL CAPACITANCE OF 0.55E-12F. 
*
*$
*
*ZETEX  BAS20    Spice Model        Last revision 21/8/92
*
.MODEL BAS20 D IS=8.402E-9 N=2.011 RS=.5125 XTI=3
+      EG=1.11 BV=435 IBV=4.139E-3 TT=41.84E-9
*
*      FOR LATER VERSIONS OF SPICE:-  SET RS=.3215 AND ADD
*      + ISR=3.853E-9 NR=2.222 IKF=.1155
*
*   NOTE: FOR RF OPERATION ADD PACKAGE INDUCTANCE OF 2.5E-9H AND
*         PARALLEL CAPACITANCE OF 0.55E-12F. 
*
*$
*
*ZETEX  BAS21    Spice Model        Last revision 21/8/92
*
.MODEL BAS21 D IS=8.402E-9 N=2.011 RS=.5125 XTI=3
+      EG=1.11 BV=435 IBV=4.139E-3 TT=41.84E-9
*
*      FOR LATER VERSIONS OF SPICE:-  SET RS=.3215 AND ADD
*      + ISR=3.853E-9 NR=2.222 IKF=.1155
*
*   NOTE: FOR RF OPERATION ADD PACKAGE INDUCTANCE OF 2.5E-9H AND
*         PARALLEL CAPACITANCE OF 0.55E-12F. 
*
*$
*
*ZETEX  BAV70   Spice Model        Last revision 21/8/92
*
.MODEL BAV70 D IS=4.856E-9 N=2.01 RS=1.358 XTI=3 
+      EG=1.11 BV=162 IBV=2.587E-3 TT=4.184E-9
*
*      FOR LATER VERSIONS OF SPICE:-  SET RS=.908 AND ADD
*    + ISR=2.032E-18 NR=6.974 IKF=44.08E-3
*
*   NOTE: FOR RF OPERATION ADD PACKAGE INDUCTANCE OF 2.5E-9H AND
*         PARALLEL CAPACITANCE OF 0.35E-12F. 
*
*$
*
*ZETEX  BAV74   Spice Model        Last revision 24/8/92
*
.MODEL BAV74 D IS=4.739E-9 N=1.849 RS=.4418 XTI=3 
+      EG=1.11 BV=99.08 IBV=25.88E-3 TT=2.02E-9
*
*      FOR LATER VERSIONS OF SPICE:-  SET RS=.4318 AND ADD
*    + ISR=4.04E-9 NR=2.236 IKF=3.373
*
*   NOTES: FOR RF OPERATION ADD PACKAGE INDUCTANCE 0F 2.5E-9H AND 
*          PARALLEL CAPACITANCE OF 0.95E-12F.
*
*$
*
*ZETEX  BAV99    Spice Model        Last revision 21/8/92
*
.MODEL BAV99 D IS=4.858E-9 N=2.038 RS=1.898 XTI=3 
+      EG=1.11 BV=164.1 IBV=12.94E-3 TT=4.184E-9
*
*      FOR LATER VERSIONS OF SPICE:-  SET RS=1.238 AND ADD
*    + ISR=7.937E-9 NR=2.113 IKF=22.89E-3
*
*   NOTES: FOR RF OPERATION ADD PACKAGE INDUCTANCE 0F 2.5E-9H AND 
*   PARALLEL CAPACITANCE OF 0.51E-12F.
*
*$
*
*ZETEX  BAW56    Spice Model        Last revision 21/8/92
*
.MODEL BAW56 D IS=4.858E-9 N=2.038 RS=1.898 XTI=3 
+      EG=1.11 BV=164.1 IBV=12.94E-3 TT=4.184E-9
*
*      FOR LATER VERSIONS OF SPICE:-  SET RS=1.238 AND ADD
*    + ISR=7.937E-9 NR=2.113 IKF=22.89E-3
*
*   NOTES: FOR RF OPERATION ADD PACKAGE INDUCTANCE 0F 2.5E-9H AND 
*   PARALLEL CAPACITANCE OF 0.51E-12F.
*
*$
*
*ZETEX  BBY31  Spice Model        Last revision 18/8/92
*
.MODEL BBY31 D IS=10.01E-15 N=1.095 RS=.2082 XTI=3 
+      EG=1.11 CJO=27.36E-12 M=1.001 VJ=2.099 FC=.5 BV=45.12 
+      IBV=92.44E-3 TT=145.7E-9
*
*    + ISR=7.447E-12 NR=2.334 IKF=10.15 (LATER SPICE VERSIONS ONLY)
*
*NOTES: FOR RF OPERATION ADD PACKAGE INDUCTANCE OF 2.5E-9H AND SET
*  RS=0.60 FOR 2V, 0.53 FOR 5V, 0.45 FOR 10V OR 0.39 FOR 20V BIAS.
*
*$
*
*ZETEX  BBY40  Spice Model        Last revision 18/8/92
*
.MODEL BBY40 D IS=7.417E-15 N=1.058 RS=.1259 XTI=3 
+      EG=1.11 CJO=64.39E-12 M=1.013 VJ=2.566 FC=.5 BV=45.12 
+      IBV=.1232 TT=215E-9
*
*    + ISR=1.731E-12 NR=2.27 IKF 9.882 (LATER SPICE VERSIONS ONLY)
*
*NOTES: FOR RF OPERATION ADD PACKAGE INDUCTANCE OF 2.5E-9H AND SET
*  RS=0.47 FOR 2V, 0.39 FOR 5V, 0.32 FOR 10V OR 0.28 FOR 20V BIAS.
*
*$
*
*ZETEX  BC107BP Spice model     Last revision  4/90
*
.MODEL BC107BP NPN IS =1.8E-14 ISE=5.0E-14 NF =.9955 NE =1.46 BF =400 BR =35.5
+IKF=.14 IKR=.03 ISC=1.72E-13 NC =1.27 NR =1.005 RB =.56 RE =.6 RC =.25 VAF=80
+VAR=12.5 CJE=13E-12 TF =.64E-9 CJC=4E-12 TR =50.72E-9 VJC=.54 MJC=.33
*
*$
*
*ZETEX  BC108BP Spice model     Last revision  4/90
*
.MODEL BC108BP NPN IS =1.8E-14 ISE=5.0E-14 NF =.9955 NE =1.46 BF =400 BR =35.5
+IKF=.14 IKR=.03 ISC=1.72E-13 NC =1.27 NR =1.005 RB =.56 RE =.6 RC =.25 VAF=80
+VAR=12.5 CJE=13E-12 TF =.64E-9 CJC=4E-12 TR =50.72E-9 VJC=.54 MJC=.33
*
*$
*
*ZETEX  BC109BP Spice model     Last revision  4/90
*
.MODEL BC109BP NPN IS =1.8E-14 ISE=5.0E-14 NF =.9955 NE =1.46 BF =400 BR =35.5
+IKF=.14 IKR=.03 ISC=1.72E-13 NC =1.27 NR =1.005 RB =.56 RE =.6 RC =.25 VAF=80
+VAR=12.5 CJE=13E-12 TF =.64E-9 CJC=4E-12 TR =50.72E-9 VJC=.54 MJC=.33
*
*$
*
*ZETEX  BC177AP Spice model    Last revision  4/90
*
.MODEL BC177AP PNP IS =1.149E-14 ISE=5E-14 NF =.9872 NE =1.4 BF =330 BR =13
+IKF=.1 IKR=.012 ISC=1.43E-14 NC =1.1 NR =.996 RB =.2 RE =.4 RC =.95 VAR=8.15
+VAF=84.56 CJE=16E-12 TF =.493E-9 CJC=10.5E-12 TR =73.55E-9 MJC=.415 VJC=.565
*
*$
*
*ZETEX  BC178AP Spice model    Last revision  4/90
*
.MODEL BC178AP PNP IS =1.149E-14 ISE=5E-14 NF =.9872 NE =1.4 BF =330 BR =13
+IKF=.1 IKR=.012 ISC=1.43E-14 NC =1.1 NR =.996 RB =.2 RE =.4 RC =.95 VAR=8.15
+VAF=84.56 CJE=16E-12 TF =.493E-9 CJC=10.5E-12 TR =73.55E-9 MJC=.415 VJC=.565
*
*$
*
*ZETEX  BC182BP Spice model     Last revision  4/90
*
.MODEL BC182BP NPN IS =1.8E-14 ISE=5.0E-14 NF =.9955 NE =1.46 BF =400 BR =35.5
+IKF=.14 IKR=.03 ISC=1.72E-13 NC =1.27 NR =1.005 RB =.56 RE =.6 RC =.25 VAF=80
+VAR=12.5 CJE=13E-12 TF =.64E-9 CJC=4E-12 TR =50.72E-9 VJC=.54 MJC=.33
*
*$
*
*ZETEX  BC183BP Spice model     Last revision  4/90
*
.MODEL BC183BP NPN IS =1.8E-14 ISE=5.0E-14 NF =.9955 NE =1.46 BF =400 BR =35.5
+IKF=.14 IKR=.03 ISC=1.72E-13 NC =1.27 NR =1.005 RB =.56 RE =.6 RC =.25 VAF=80
+VAR=12.5 CJE=13E-12 TF =.64E-9 CJC=4E-12 TR =50.72E-9 VJC=.54 MJC=.33
*
*$
*
*ZETEX  BC184BP Spice model     Last revision  4/90
*
.MODEL BC184BP NPN IS =1.8E-14 ISE=5.0E-14 NF =.9955 NE =1.46 BF =400 BR =35.5
+IKF=.14 IKR=.03 ISC=1.72E-13 NC =1.27 NR =1.005 RB =.56 RE =.6 RC =.25 VAF=80
+VAR=12.5 CJE=13E-12 TF =.64E-9 CJC=4E-12 TR =50.72E-9 VJC=.54 MJC=.33
*
*$
*
*ZETEX  BC212AP Spice model    Last revision  4/90
*
.MODEL BC212AP PNP IS =1.149E-14 ISE=5E-14 NF =.9872 NE =1.4 BF =330 BR =13
+IKF=.1 IKR=.012 ISC=1.43E-14 NC =1.1 NR =.996 RB =.2 RE =.4 RC =.95 VAR=8.15
+VAF=84.56 CJE=16E-12 TF =.493E-9 CJC=10.5E-12 TR =73.55E-9 MJC=.415 VJC=.565
*
*$
*
*ZETEX  BC213AP Spice model    Last revision  4/90
*
.MODEL BC213AP PNP IS =1.149E-14 ISE=5E-14 NF =.9872 NE =1.4 BF =330 BR =13
+IKF=.1 IKR=.012 ISC=1.43E-14 NC =1.1 NR =.996 RB =.2 RE =.4 RC =.95 VAR=8.15
+VAF=84.56 CJE=16E-12 TF =.493E-9 CJC=10.5E-12 TR =73.55E-9 MJC=.415 VJC=.565
*
*$
*
*ZETEX  BC237BP Spice model     Last revision  4/90
*
.MODEL BC237BP NPN IS =1.8E-14 ISE=5.0E-14 NF =.9955 NE =1.46 BF =400 BR =35.5
+IKF=.14 IKR=.03 ISC=1.72E-13 NC =1.27 NR =1.005 RB =.56 RE =.6 RC =.25 VAF=80
+VAR=12.5 CJE=13E-12 TF =.64E-9 CJC=4E-12 TR =50.72E-9 VJC=.54 MJC=.33
*
*$
*
*ZETEX  BC238BP Spice model     Last revision  4/90
*
.MODEL BC238BP NPN IS =1.8E-14 ISE=5.0E-14 NF =.9955 NE =1.46 BF =400 BR =35.5
+IKF=.14 IKR=.03 ISC=1.72E-13 NC =1.27 NR =1.005 RB =.56 RE =.6 RC =.25 VAF=80
+VAR=12.5 CJE=13E-12 TF =.64E-9 CJC=4E-12 TR =50.72E-9 VJC=.54 MJC=.33
*
*$
*
*ZETEX  BC239BP Spice model     Last revision  4/90
*
.MODEL BC239BP NPN IS =1.8E-14 ISE=5.0E-14 NF =.9955 NE =1.46 BF =400 BR =35.5
+IKF=.14 IKR=.03 ISC=1.72E-13 NC =1.27 NR =1.005 RB =.56 RE =.6 RC =.25 VAF=80
+VAR=12.5 CJE=13E-12 TF =.64E-9 CJC=4E-12 TR =50.72E-9 VJC=.54 MJC=.33
*
*$
*
*ZETEX  BC307AP Spice model    Last revision  4/90
*
.MODEL BC307AP PNP IS =1.149E-14 ISE=5E-14 NF =.9872 NE =1.4 BF =330 BR =13
+IKF=.1 IKR=.012 ISC=1.43E-14 NC =1.1 NR =.996 RB =.2 RE =.4 RC =.95 VAR=8.15
+VAF=84.56 CJE=16E-12 TF =.493E-9 CJC=10.5E-12 TR =73.55E-9 MJC=.415 VJC=.565
*
*$
*
*ZETEX  BC308AP Spice model    Last revision  4/90
*
.MODEL BC308AP PNP IS =1.149E-14 ISE=5E-14 NF =.9872 NE =1.4 BF =330 BR =13
+IKF=.1 IKR=.012 ISC=1.43E-14 NC =1.1 NR =.996 RB =.2 RE =.4 RC =.95 VAR=8.15
+VAF=84.56 CJE=16E-12 TF =.493E-9 CJC=10.5E-12 TR =73.55E-9 MJC=.415 VJC=.565
*
*$
*
*ZETEX  BC337AP Spice model     Last revision  4/90
*
.MODEL BC337AP NPN IS =3.941445E-14 BF =175 VAF=109.45 NF =1 IKF=.8
+ISE=7.4025E-15 NE =1.3 BR =20.5 VAR=14.25 NR =.974 IKR=.1 ISC=3.157E-13
+NC =1.2 RB =1.1 RE =.1259 RC =.0539 CJE=63E-12 TF =.75E-9 CJC=15.8E-12
+TR =85E-9 VJC=.505 MJC=.39
*
*$
*
*ZETEX  BC338AP Spice model     Last revision  4/90
*
.MODEL BC338AP NPN IS =3.941445E-14 BF =175 VAF=109.45 NF =1 IKF=.8
+ISE=7.4025E-15 NE =1.3 BR =20.5 VAR=14.25 NR =.974 IKR=.1 ISC=3.157E-13
+NC =1.2 RB =1.1 RE =.1259 RC =.0539 CJE=63E-12 TF =.75E-9 CJC=15.8E-12
+TR =85E-9 VJC=.505 MJC=.39
*
*$
*
*ZETEX  BC413BP Spice model     Last revision  4/90
*
.MODEL BC413BP NPN IS =1.8E-14 ISE=5.0E-14 NF =.9955 NE =1.46 BF =400 BR =35.5
+IKF=.14 IKR=.03 ISC=1.72E-13 NC =1.27 NR =1.005 RB =.56 RE =.6 RC =.25 VAF=80
+VAR=12.5 CJE=13E-12 TF =.64E-9 CJC=4E-12 TR =50.72E-9 VJC=.54 MJC=.33
*
*$
*
*ZETEX  BC414BP Spice model     Last revision  4/90
*
.MODEL BC414BP NPN IS =1.8E-14 ISE=5.0E-14 NF =.9955 NE =1.46 BF =400 BR =35.5
+IKF=.14 IKR=.03 ISC=1.72E-13 NC =1.27 NR =1.005 RB =.56 RE =.6 RC =.25 VAF=80
+VAR=12.5 CJE=13E-12 TF =.64E-9 CJC=4E-12 TR =50.72E-9 VJC=.54 MJC=.33
*
*$
*
*ZETEX  BC415AP Spice model    Last revision  4/90
*
.MODEL BC415AP PNP IS =1.149E-14 ISE=5E-14 NF =.9872 NE =1.4 BF =330 BR =13
+IKF=.1 IKR=.012 ISC=1.43E-14 NC =1.1 NR =.996 RB =.2 RE =.4 RC =.95 VAR=8.15
+VAF=84.56 CJE=16E-12 TF =.493E-9 CJC=10.5E-12 TR =73.55E-9 MJC=.415 VJC=.565
*
*$
*
*ZETEX  BC416AP Spice model    Last revision  4/90
*
.MODEL BC416AP PNP IS =1.149E-14 ISE=5E-14 NF =.9872 NE =1.4 BF =330 BR =13
+IKF=.1 IKR=.012 ISC=1.43E-14 NC =1.1 NR =.996 RB =.2 RE =.4 RC =.95 VAR=8.15
+VAF=84.56 CJE=16E-12 TF =.493E-9 CJC=10.5E-12 TR =73.55E-9 MJC=.415 VJC=.565
*
*$
*
*ZETEX  BC546BP Spice model     Last revision  4/90
*
.MODEL BC546BP NPN IS =1.8E-14 ISE=5.0E-14 NF =.9955 NE =1.46 BF =400 BR =35.5
+IKF=.14 IKR=.03 ISC=1.72E-13 NC =1.27 NR =1.005 RB =.56 RE =.6 RC =.25 VAF=80
+VAR=12.5 CJE=13E-12 TF =.64E-9 CJC=4E-12 TR =50.72E-9 VJC=.54 MJC=.33
*
*$
*
*ZETEX  BC547BP Spice model     Last revision  4/90
*
.MODEL BC547BP NPN IS =1.8E-14 ISE=5.0E-14 NF =.9955 NE =1.46 BF =400 BR =35.5
+IKF=.14 IKR=.03 ISC=1.72E-13 NC =1.27 NR =1.005 RB =.56 RE =.6 RC =.25 VAF=80
+VAR=12.5 CJE=13E-12 TF =.64E-9 CJC=4E-12 TR =50.72E-9 VJC=.54 MJC=.33
*
*$
*
*ZETEX  BC548BP Spice model     Last revision  4/90
*
.MODEL BC548BP NPN IS =1.8E-14 ISE=5.0E-14 NF =.9955 NE =1.46 BF =400 BR =35.5
+IKF=.14 IKR=.03 ISC=1.72E-13 NC =1.27 NR =1.005 RB =.56 RE =.6 RC =.25 VAF=80
+VAR=12.5 CJE=13E-12 TF =.64E-9 CJC=4E-12 TR =50.72E-9 VJC=.54 MJC=.33
*
*$
*
*ZETEX  BC549BP Spice model     Last revision  4/90
*
.MODEL BC549BP NPN IS =1.8E-14 ISE=5.0E-14 NF =.9955 NE =1.46 BF =400 BR =35.5
+IKF=.14 IKR=.03 ISC=1.72E-13 NC =1.27 NR =1.005 RB =.56 RE =.6 RC =.25 VAF=80
+VAR=12.5 CJE=13E-12 TF =.64E-9 CJC=4E-12 TR =50.72E-9 VJC=.54 MJC=.33
*
*$
*
*ZETEX  BC550BP Spice model     Last revision  4/90
*
.MODEL BC550BP NPN IS =1.8E-14 ISE=5.0E-14 NF =.9955 NE =1.46 BF =400 BR =35.5
+IKF=.14 IKR=.03 ISC=1.72E-13 NC =1.27 NR =1.005 RB =.56 RE =.6 RC =.25 VAF=80
+VAR=12.5 CJE=13E-12 TF =.64E-9 CJC=4E-12 TR =50.72E-9 VJC=.54 MJC=.33
*
*$
*
*ZETEX  BC556AP Spice model    Last revision  4/90
*
.MODEL BC556AP PNP IS =1.149E-14 ISE=5E-14 NF =.9872 NE =1.4 BF =330 BR =13
+IKF=.1 IKR=.012 ISC=1.43E-14 NC =1.1 NR =.996 RB =.2 RE =.4 RC =.95 VAR=8.15
+VAF=84.56 CJE=16E-12 TF =.493E-9 CJC=10.5E-12 TR =73.55E-9 MJC=.415 VJC=.565
*
*$
*
*ZETEX  BC557AP Spice model    Last revision  4/90
*
.MODEL BC557AP PNP IS =1.149E-14 ISE=5E-14 NF =.9872 NE =1.4 BF =330 BR =13
+IKF=.1 IKR=.012 ISC=1.43E-14 NC =1.1 NR =.996 RB =.2 RE =.4 RC =.95 VAR=8.15
+VAF=84.56 CJE=16E-12 TF =.493E-9 CJC=10.5E-12 TR =73.55E-9 MJC=.415 VJC=.565
*
*$
*
*ZETEX  BC558AP Spice model    Last revision  4/90
*
.MODEL BC558AP PNP IS =1.149E-14 ISE=5E-14 NF =.9872 NE =1.4 BF =330 BR =13
+IKF=.1 IKR=.012 ISC=1.43E-14 NC =1.1 NR =.996 RB =.2 RE =.4 RC =.95 VAR=8.15
+VAF=84.56 CJE=16E-12 TF =.493E-9 CJC=10.5E-12 TR =73.55E-9 MJC=.415 VJC=.565
*
*$
*
*ZETEX  BC559AP Spice model    Last revision  4/90
*
.MODEL BC559AP PNP IS =1.149E-14 ISE=5E-14 NF =.9872 NE =1.4 BF =330 BR =13
+IKF=.1 IKR=.012 ISC=1.43E-14 NC =1.1 NR =.996 RB =.2 RE =.4 RC =.95 VAR=8.15
+VAF=84.56 CJE=16E-12 TF =.493E-9 CJC=10.5E-12 TR =73.55E-9 MJC=.415 VJC=.565
*
*$
*
*ZETEX  BC560AP Spice model    Last revision  4/90
*
.MODEL BC560AP PNP IS =1.149E-14 ISE=5E-14 NF =.9872 NE =1.4 BF =330 BR =13
+IKF=.1 IKR=.012 ISC=1.43E-14 NC =1.1 NR =.996 RB =.2 RE =.4 RC =.95 VAR=8.15
+VAF=84.56 CJE=16E-12 TF =.493E-9 CJC=10.5E-12 TR =73.55E-9 MJC=.415 VJC=.565
*
*$
*
*ZETEX  BC80716 Spice model    Last revision  10/1/90
*
.MODEL BC80716 PNP IS =3.2E-14 BF =170 VAF=45 NF =0.977 IKF=1.25 ISE=7E-15
+NE =1.35 BR =50 VAR=50 NR =.986 IKR=0.15 ISC=0.9E-14 NC =1.08 RB =0.16
+RE =0.195 RC =0.185 CJE=104E-12 TF =0.7E-9 CJC=30.5-12 TR =3E-9 VJC=0.395
+MJC=0.415
*
*$
*
*ZETEX  BC80816 Spice model    Last revision  10/1/90
*
.MODEL BC80816 PNP IS =3.2E-14 BF =170 VAF=45 NF =0.977 IKF=1.25 ISE=7E-15
+NE =1.35 BR =50 VAR=50 NR =.986 IKR=0.15 ISC=0.9E-14 NC =1.08 RB =0.16
+RE =0.195 RC =0.185 CJE=104E-12 TF =0.7E-9 CJC=30.5-12 TR =3E-9 VJC=0.395
+MJC=0.415
*
*$
*
*ZETEX  BC846B Spice model     Last revision  4/90
*
.MODEL BC846B NPN IS =1.8E-14 ISE=5.0E-14 NF =.9955 NE =1.46 BF =400 BR =35.5
+IKF=.14 IKR=.03 ISC=1.72E-13 NC =1.27 NR =1.005 RB =.56 RE =.6 RC =.25 VAF=80
+VAR=12.5 CJE=13E-12 TF =.64E-9 CJC=4E-12 TR =50.72E-9 VJC=.54 MJC=.33
*
*$
*
*ZETEX  BC847B Spice model     Last revision  4/90
*
.MODEL BC847B NPN IS =1.8E-14 ISE=5.0E-14 NF =.9955 NE =1.46 BF =400 BR =35.5
+IKF=.14 IKR=.03 ISC=1.72E-13 NC =1.27 NR =1.005 RB =.56 RE =.6 RC =.25 VAF=80
+VAR=12.5 CJE=13E-12 TF =.64E-9 CJC=4E-12 TR =50.72E-9 VJC=.54 MJC=.33
*
*$
*
*ZETEX  BC848B Spice model     Last revision  4/90
*
.MODEL BC848B NPN IS =1.8E-14 ISE=5.0E-14 NF =.9955 NE =1.46 BF =400 BR =35.5
+IKF=.14 IKR=.03 ISC=1.72E-13 NC =1.27 NR =1.005 RB =.56 RE =.6 RC =.25 VAF=80
+VAR=12.5 CJE=13E-12 TF =.64E-9 CJC=4E-12 TR =50.72E-9 VJC=.54 MJC=.33
*
*$
*
*ZETEX  BC849B Spice model     Last revision  4/90
*
.MODEL BC849B NPN IS =1.8E-14 ISE=5.0E-14 NF =.9955 NE =1.46 BF =400 BR =35.5
+IKF=.14 IKR=.03 ISC=1.72E-13 NC =1.27 NR =1.005 RB =.56 RE =.6 RC =.25 VAF=80
+VAR=12.5 CJE=13E-12 TF =.64E-9 CJC=4E-12 TR =50.72E-9 VJC=.54 MJC=.33
*
*$
*
*ZETEX  BC850B Spice model     Last revision  4/90
*
.MODEL BC850B NPN IS =1.8E-14 ISE=5.0E-14 NF =.9955 NE =1.46 BF =400 BR =35.5
+IKF=.14 IKR=.03 ISC=1.72E-13 NC =1.27 NR =1.005 RB =.56 RE =.6 RC =.25 VAF=80
+VAR=12.5 CJE=13E-12 TF =.64E-9 CJC=4E-12 TR =50.72E-9 VJC=.54 MJC=.33
*
*$
*
*ZETEX  BC856A Spice model    Last revision  4/90
*
.MODEL BC856A PNP IS =1.149E-14 ISE=5E-14 NF =.9872 NE =1.4 BF =330 BR =13
+IKF=.1 IKR=.012 ISC=1.43E-14 NC =1.1 NR =.996 RB =.2 RE =.4 RC =.95 VAR=8.15
+VAF=84.56 CJE=16E-12 TF =.493E-9 CJC=10.5E-12 TR =73.55E-9 MJC=.415 VJC=.565
*
*$
*
*ZETEX  BC857A Spice model    Last revision  4/90
*
.MODEL BC857A PNP IS =1.149E-14 ISE=5E-14 NF =.9872 NE =1.4 BF =330 BR =13
+IKF=.1 IKR=.012 ISC=1.43E-14 NC =1.1 NR =.996 RB =.2 RE =.4 RC =.95 VAR=8.15
+VAF=84.56 CJE=16E-12 TF =.493E-9 CJC=10.5E-12 TR =73.55E-9 MJC=.415 VJC=.565
*
*$
*
*ZETEX  BC858A Spice model    Last revision  4/90
*
.MODEL BC858A PNP IS =1.149E-14 ISE=5E-14 NF =.9872 NE =1.4 BF =330 BR =13
+IKF=.1 IKR=.012 ISC=1.43E-14 NC =1.1 NR =.996 RB =.2 RE =.4 RC =.95 VAR=8.15
+VAF=84.56 CJE=16E-12 TF =.493E-9 CJC=10.5E-12 TR =73.55E-9 MJC=.415 VJC=.565
*
*$
*
*ZETEX  BC859A Spice model    Last revision  4/90
*
.MODEL BC859A PNP IS =1.149E-14 ISE=5E-14 NF =.9872 NE =1.4 BF =330 BR =13
+IKF=.1 IKR=.012 ISC=1.43E-14 NC =1.1 NR =.996 RB =.2 RE =.4 RC =.95 VAR=8.15
+VAF=84.56 CJE=16E-12 TF =.493E-9 CJC=10.5E-12 TR =73.55E-9 MJC=.415 VJC=.565
*
*$
*
*ZETEX  BC860A Spice model    Last revision  4/90
*
.MODEL BC860A PNP IS =1.149E-14 ISE=5E-14 NF =.9872 NE =1.4 BF =330 BR =13
+IKF=.1 IKR=.012 ISC=1.43E-14 NC =1.1 NR =.996 RB =.2 RE =.4 RC =.95 VAR=8.15
+VAF=84.56 CJE=16E-12 TF =.493E-9 CJC=10.5E-12 TR =73.55E-9 MJC=.415 VJC=.565
*
*$
*
*ZETEX  BCV72 Spice model     Last revision  4/90
*
.MODEL BCV72 NPN IS =1.8E-14 ISE=5.0E-14 NF =.9955 NE =1.46 BF =400 BR =35.5
+IKF=.14 IKR=.03 ISC=1.72E-13 NC =1.27 NR =1.005 RB =.56 RE =.6 RC =.25 VAF=80
+VAR=12.5 CJE=13E-12 TF =.64E-9 CJC=4E-12 TR =50.72E-9 VJC=.54 MJC=.33
*
*$
*
*ZETEX  BCW29 Spice model    Last revision  4/90
*
.MODEL BCW29 PNP IS =1.149E-14 ISE=5E-14 NF =.9872 NE =1.4 BF =330 BR =13
+IKF=.1 IKR=.012 ISC=1.43E-14 NC =1.1 NR =.996 RB =.2 RE =.4 RC =.95 VAR=8.15
+VAF=84.56 CJE=16E-12 TF =.493E-9 CJC=10.5E-12 TR =73.55E-9 MJC=.415 VJC=.565
*
*$
*
*ZETEX  BCW32 Spice model     Last revision  4/90
*
.MODEL BCW32 NPN IS =1.8E-14 ISE=5.0E-14 NF =.9955 NE =1.46 BF =400 BR =35.5
+IKF=.14 IKR=.03 ISC=1.72E-13 NC =1.27 NR =1.005 RB =.56 RE =.6 RC =.25 VAF=80
+VAR=12.5 CJE=13E-12 TF =.64E-9 CJC=4E-12 TR =50.72E-9 VJC=.54 MJC=.33
*
*$
*
*ZETEX  BCW60C Spice model     Last revision  4/90
*
.MODEL BCW60C NPN IS =1.8E-14 ISE=5.0E-14 NF =.9955 NE =1.46 BF =400 BR =35.5
+IKF=.14 IKR=.03 ISC=1.72E-13 NC =1.27 NR =1.005 RB =.56 RE =.6 RC =.25 VAF=80
+VAR=12.5 CJE=13E-12 TF =.64E-9 CJC=4E-12 TR =50.72E-9 VJC=.54 MJC=.33
*
*$
*
*ZETEX  BCW61A Spice model    Last revision  4/90
*
.MODEL BCW61A PNP IS =1.149E-14 ISE=5E-14 NF =.9872 NE =1.4 BF =330 BR =13
+IKF=.1 IKR=.012 ISC=1.43E-14 NC =1.1 NR =.996 RB =.2 RE =.4 RC =.95 VAR=8.15
+VAF=84.56 CJE=16E-12 TF =.493E-9 CJC=10.5E-12 TR =73.55E-9 MJC=.415 VJC=.565
*
*$
*
*ZETEX  BCW65A Spice model     Last revision  4/90
*
.MODEL BCW65A NPN IS =3.941445E-14 BF =175 VAF=109.45 NF =1 IKF=.8
+ISE=7.4025E-15 NE =1.3 BR =20.5 VAR=14.25 NR =.974 IKR=.1 ISC=3.157E-13
+NC =1.2 RB =1.1 RE =.1259 RC =.0539 CJE=63E-12 TF =.75E-9 CJC=15.8E-12
+TR =85E-9 VJC=.505 MJC=.39
*
*$
*
*ZETEX  BCW66F Spice model     Last revision  4/90
*
.MODEL BCW66F NPN IS =3.941445E-14 BF =175 VAF=109.45 NF =1 IKF=.8
+ISE=7.4025E-15 NE =1.3 BR =20.5 VAR=14.25 NR =.974 IKR=.1 ISC=3.157E-13
+NC =1.2 RB =1.1 RE =.1259 RC =.0539 CJE=63E-12 TF =.75E-9 CJC=15.8E-12
+TR =85E-9 VJC=.505 MJC=.39
*
*$
*
*ZETEX  BCW67A Spice model    Last revision  10/1/90
*
.MODEL BCW67A PNP IS =3.2E-14 BF =170 VAF=45 NF =0.977 IKF=1.25 ISE=7E-15
+NE =1.35 BR =50 VAR=50 NR =.986 IKR=0.15 ISC=0.9E-14 NC =1.08 RB =0.16
+RE =0.195 RC =0.185 CJE=104E-12 TF =0.7E-9 CJC=30.5-12 TR =3E-9 VJC=0.395
+MJC=0.415
*
*$
*
*ZETEX  BCW68F Spice model    Last revision  10/1/90
*
.MODEL BCW68F PNP IS =3.2E-14 BF =170 VAF=45 NF =0.977 IKF=1.25 ISE=7E-15
+NE =1.35 BR =50 VAR=50 NR =.986 IKR=0.15 ISC=0.9E-14 NC =1.08 RB =0.16
+RE =0.195 RC =0.185 CJE=104E-12 TF =0.7E-9 CJC=30.5-12 TR =3E-9 VJC=0.395
+MJC=0.415
*
*$
*
*ZETEX  BCW69 Spice model    Last revision  4/90
*
.MODEL BCW69 PNP IS =1.149E-14 ISE=5E-14 NF =.9872 NE =1.4 BF =330 BR =13
+IKF=.1 IKR=.012 ISC=1.43E-14 NC =1.1 NR =.996 RB =.2 RE =.4 RC =.95 VAR=8.15
+VAF=84.56 CJE=16E-12 TF =.493E-9 CJC=10.5E-12 TR =73.55E-9 MJC=.415 VJC=.565
*
*$
*
*ZETEX  BCW72 Spice model     Last revision  4/90
*
.MODEL BCW72 NPN IS =1.8E-14 ISE=5.0E-14 NF =.9955 NE =1.46 BF =400 BR =35.5
+IKF=.14 IKR=.03 ISC=1.72E-13 NC =1.27 NR =1.005 RB =.56 RE =.6 RC =.25 VAF=80
+VAR=12.5 CJE=13E-12 TF =.64E-9 CJC=4E-12 TR =50.72E-9 VJC=.54 MJC=.33
*
*$
*
*ZETEX  BCW89 Spice model    Last revision  4/90
*
.MODEL BCW89 PNP IS =1.149E-14 ISE=5E-14 NF =.9872 NE =1.4 BF =330 BR =13
+IKF=.1 IKR=.012 ISC=1.43E-14 NC =1.1 NR =.996 RB =.2 RE =.4 RC =.95 VAR=8.15
+VAF=84.56 CJE=16E-12 TF =.493E-9 CJC=10.5E-12 TR =73.55E-9 MJC=.415 VJC=.565
*
*$
*
*ZETEX  BCX38B Darlington Spice Subcircuit   Last revision  4/9/90
*
.SUBCKT BCX38B 1 2 3
*              C B E
Q1 1 2 4 SUB38B
Q2 1 4 3 SUB38B 12.75
*
.MODEL SUB38B NPN IS =1.1E-14 ISE=7.1E-15 NF =1.012 NE =1.4758 BF =147 IKF=.12
+BR =15 IKR=.05 RE =1.3 RC =.5 RB =.3 VAF=150 CJE=14.5E-12 CJC=4.14E-12
+VJC=.515 MJC=.26 TF =1.15E-9 TR =75E-9
.ENDS BCX38B
*
*$
*
*ZETEX  BCX71G Spice model    Last revision  4/90
*
.MODEL BCX71G PNP IS =1.149E-14 ISE=5E-14 NF =.9872 NE =1.4 BF =330 BR =13
+IKF=.1 IKR=.012 ISC=1.43E-14 NC =1.1 NR =.996 RB =.2 RE =.4 RC =.95 VAR=8.15
+VAF=84.56 CJE=16E-12 TF =.493E-9 CJC=10.5E-12 TR =73.55E-9 MJC=.415 VJC=.565
*
*$
*
*ZETEX  BFQ31 Spice model   Last revision 9/90
*
.MODEL BFQ31 NPN IS =1.73E-13 BF =200 VAF=90 IKF=8.8E-3 ISE=241E-12 NE =1.701
+BR =3.124 VAR=9.7 NR =.9705 IKR=.02 ISC=8.31E-13 NC =1.112 RB =17 RE =2.13
+RC =30 CJE=2.27E-12 TF =.2E-9 CJC=1.2E-12 TR =1E-9 VJC=.415 MJC=.145
*
*$
*
*ZETEX  BFS17 Spice model   Last revision 9/3/93
*
.MODEL BFS17  NPN IS =4.9E-16 NF =.993 BF =93 VAF=90 IKF=.055 
+             ISE=1E-14 NE =1.800 BR =25 VAR=6 NR =1.005 IKR=.01 
+             ISC=4.5E-15 NC =1.2 RB =7 RBM=.5 IRB=5E-4 RE =.5 
+             RC =2.0 TF =5E-11 XTF=100 ITF=2.3 TR =2.4E-8 
+             CJE=1.18E-12 CJC=1.54E-12 VJC=.559 MJC=.25 VJE=1.12 
+             MJE=.4
*
* NOTE: FOR RF OPERATION ADD PACKAGE INDUCTANCE OF 1.2E-9H PER LEAD
*
*$
*
*ZETEX   FCX458   Spice model   Last revision 19/3/92
*
.MODEL FCX458  NPN IS=5.326791E-14 NF=0.992 BF=190 IKF=0.075 
+VAF=1050 ISE=2.1E-14 NE=1.385 NR=1.05 BR=16.3 IKR=1.8 VAR=99
+ISC=6.42E-12 NC=1.25 RB=0.5 RE=0.224 RC=0.134 CJC=8.5E-12  
+MJC=0.3966 VJC=0.4332 CJE=122E-12 TF=1.66E-9 TR=8E-6
*
*$
*
*ZETEX   FCX558   Spice model   Last revision 20/3/92
*
.MODEL FCX558 PNP IS=7.8443E-14 NF=0.99774 BF=200 IKF=0.096 VAF=349
+ISE=3.35E-14 NE=1.689 NR=0.99784 BR=3.4 IKR=0.15 VAR=82 
+ISC=9.42E-12 NC=1.05 RB=0.133 RE=0.5725 RC=0.748 CJC=17.6E-12  
+MJC=0.5932 VJC=0.9135 CJE=110E-12 TF=1.13E-9 TR=75E-6
*
*$
*
*ZETEX  FCX649 Spice model   Last revision  17/7/90
*
.MODEL FCX649 NPN IS =3E-13 BF =225 VAF=80 IKF=2.8 ISE=1.1E-13 NE =1.37
+BR =110 VAR=28 NR =.972 IKR=0.8 ISC=6.5E-13 NC =1.372 RB =0.3 RE =.063
+RC =.07 CJE=325E-12 TF =1E-9 CJC=70E-12 TR =10E-9
*
*$
*
*ZETEX   FCX749 Spice model       Last revision  17/7/90
*
.MODEL FCX749 PNP IS =2.6E-13 BF =210 VAF=27 IKF=7 ISE=1.2E-13 NE =1.43 BR =70
+VAR=14 IKR=.6 ISC=12.04E-13 NC =1.4474 NF =.999 NR =.982 RB =.3 RE =.065
+RC =.04 CJE=410E-12 TF =.65E-9 CJC=140E-12 TR =12E-9 MJC=.35 VJC=.305
*
*$
*
*ZETEX  FMMD2835    Spice Model        Last revision 21/8/92
*
.MODEL FMMD2835 D IS=4.858E-9 N=2.038 RS=1.898 XTI=3 
+      EG=1.11 BV=164.1 IBV=12.94E-3 TT=4.184E-9
*
*      FOR LATER VERSIONS OF SPICE:-  SET RS=1.238 AND ADD
*    + ISR=7.937E-9 NR=2.113 IKF=22.89E-3
*
*   NOTES: FOR RF OPERATION ADD PACKAGE INDUCTANCE 0F 2.5E-9H AND 
*   PARALLEL CAPACITANCE OF 0.51E-12F.
*
*$
*
*ZETEX  FMMD2836    Spice Model        Last revision 21/8/92
*
.MODEL FMMD2836 D IS=4.858E-9 N=2.038 RS=1.898 XTI=3 
+      EG=1.11 BV=164.1 IBV=12.94E-3 TT=4.184E-9
*
*      FOR LATER VERSIONS OF SPICE:-  SET RS=1.238 AND ADD
*    + ISR=7.937E-9 NR=2.113 IKF=22.89E-3
*
*   NOTES: FOR RF OPERATION ADD PACKAGE INDUCTANCE 0F 2.5E-9H AND 
*   PARALLEL CAPACITANCE OF 0.51E-12F.
*
*$
*
*ZETEX  FMMD2837   Spice Model        Last revision 21/8/92
*
.MODEL FMMD2837 D IS=4.856E-9 N=2.01 RS=1.358 XTI=3 
+      EG=1.11 BV=162 IBV=2.587E-3 TT=4.184E-9
*
*      FOR LATER VERSIONS OF SPICE:-  SET RS=.908 AND ADD
*    + ISR=2.032E-18 NR=6.974 IKF=44.08E-3
*
*   NOTE: FOR RF OPERATION ADD PACKAGE INDUCTANCE OF 2.5E-9H AND
*         PARALLEL CAPACITANCE OF 0.35E-12F. 
*
*$
*
*ZETEX  FMMD2838   Spice Model        Last revision 21/8/92
*
.MODEL FMMD2838 D IS=4.856E-9 N=2.01 RS=1.358 XTI=3 
+      EG=1.11 BV=162 IBV=2.587E-3 TT=4.184E-9
*
*      FOR LATER VERSIONS OF SPICE:-  SET RS=.908 AND ADD
*    + ISR=2.032E-18 NR=6.974 IKF=44.08E-3
*
*   NOTE: FOR RF OPERATION ADD PACKAGE INDUCTANCE OF 2.5E-9H AND
*         PARALLEL CAPACITANCE OF 0.35E-12F. 
*
*$
*
*ZETEX  FMMD6050  Spice Model        Last revision 24/8/92
*
.MODEL FMMD6050 D IS=1.795E-9 N=1.874 RS=1.263 XTI=3 
+      EG=1.11 BV=153.1 IBV=17.26E-3 TT=7.358E-9
*
*      FOR LATER VERSIONS OF SPICE:-  SET RS=1.173 AND ADD
*    + ISR=1.086E-9 NR=2.955 IKF=2.726
*
*   NOTES: FOR RF OPERATION ADD PACKAGE INDUCTANCE 0F 2.5E-9H AND 
*          PARALLEL CAPACITANCE OF 0.555E-12F.
*
*$
*
*ZETEX  FMMD6100   Spice Model        Last revision 24/8/92
*
.MODEL FMMD6100 D IS=4.739E-9 N=1.849 RS=.4418 XTI=3 
+      EG=1.11 BV=99.08 IBV=25.88E-3 TT=2.02E-9
*
*      FOR LATER VERSIONS OF SPICE:-  SET RS=.4318 AND ADD
*    + ISR=4.04E-9 NR=2.236 IKF=3.373
*
*   NOTES: FOR RF OPERATION ADD PACKAGE INDUCTANCE 0F 2.5E-9H AND 
*          PARALLEL CAPACITANCE OF 0.95E-12F.
*
*$
*
*ZETEX  FMMD7000  Spice Model        Last revision 24/8/92
*
.MODEL FMMD7000 D IS=1.795E-9 N=1.874 RS=1.263 XTI=3 
+      EG=1.11 BV=153.1 IBV=17.26E-3 TT=7.358E-9
*
*      FOR LATER VERSIONS OF SPICE:-  SET RS=1.173 AND ADD
*    + ISR=1.086E-9 NR=2.955 IKF=2.726
*
*   NOTES: FOR RF OPERATION ADD PACKAGE INDUCTANCE 0F 2.5E-9H AND 
*          PARALLEL CAPACITANCE OF 0.555E-12F.
*
*$
*
*ZETEX  FMMD914    Spice Model        Last revision 21/8/92
*
.MODEL FMMD914 D IS=4.858E-9 N=2.038 RS=1.898 XTI=3 
+      EG=1.11 BV=164.1 IBV=12.94E-3 TT=4.184E-9
*
*      FOR LATER VERSIONS OF SPICE:-  SET RS=1.238 AND ADD
*    + ISR=7.937E-9 NR=2.113 IKF=22.89E-3
*
*   NOTES: FOR RF OPERATION ADD PACKAGE INDUCTANCE 0F 2.5E-9H AND 
*   PARALLEL CAPACITANCE OF 0.51E-12F.
*
*$
*
*ZETEX  FMMT38B Darlington Spice Subcircuit   Last revision  4/9/90
*
.SUBCKT FMMT38B 1 2 3
*               C B E
Q1 1 2 4 SUB38B
Q2 1 4 3 SUB38B 12.75
*
.MODEL SUB38B NPN IS =1.1E-14 ISE=7.1E-15 NF =1.012 NE =1.4758 BF =147 IKF=.12
+BR =15 IKR=.05 RE =1.3 RC =.5 RB =.3 VAF=150 CJE=14.5E-12 CJC=4.14E-12
+VJC=.515 MJC=.26 TF =1.15E-9 TR =75E-9
.ENDS FMMT38B
*
*$
*
*ZETEX  FMMT489  Spice model   Last revision 13/10/93
*
.MODEL FMMT489 NPN IS =1.04E-13  BF =195 IKF =1.9 VAF =160 
+              ISE=1.83E-14 NE =1.35 NR =1.00 BR =140 IKR=0.5 